DATABASE ../phreeqc-ph.dat
TITLE Luo 2009 small column 
EXCHANGE_SPECIES
	Al+3 + 3X- = AlX3
	log_k	1.57
	-gamma	9.0	0.0

PRINT
        -reset false

SELECTED_OUTPUT
        -reset false
	-file sc1.txt
	-time true
        -distance true
	-ph true
	-totals Al S(6) Ca Mg Mn Co Ni U Si N(5) C(4) Na K Br
END

SOLUTION 0
	pH        3.55
	N(5)	45.758 #53.306
	S(6)	30.918 #27.764
	Cl	 9.026 #8.603
	Al	 6.115
	Na	 7.610 charge
	Ca	 7.610 #9.306
	Mg	 2.084 #2.996
	Si	 1.168
	Mn(2)	 1.0 #1.229 #1.585
	Ni	 0.155 #0.143
	U	 0.172
	Co	 0.009 #0.015
	C(4)       1.0 CO2(g) -3.5
	K	4.348
EQUILIBRIUM_PHASES 0
#	Al(OH)3(a) 0.0 0.0        #1
#	Basaluminite 0.0 0.0      #2
#	#Alunite 0.0 0.0          #3
#	#Gibbsite 0.0 0.0         #4
#	#Jurbanite 0.0 0.0        #5
#	#MGibbsite 0.0 0.0        #7
#	#Kaolinite 0.0 0.0        #6
#	SiO2(a) 0.0 0.0           #8
#	CaMg(CO3)2s 0.0 0.0       #9
#	CaCO3H2Os 0.0 0.0         #10
#	#Ca0.85Mg0.15CO3s 0.0 0.0  #11
#	Portlandite 0.0 0.0       #12 Ca(OH)2
#	Gypsum 0.0 0.0            #13 CaSO4.2H2O
#	MgCO3s 0.0 0.0            #14 MgCO3
#	Mg(OH)2s 0.0 0.0          #15 Mg(OH)2
#	MnCO3s 0.0 0.0            #16 synthetic rhodocrosite
#	Pyrochroite 0.0 0.0       #17 Mn(OH)2
#	#FeCo0.1(OH)3.2s 0.0 0.0   #18
#	Fe(OH)3(a) 0.0 0.0       #19
#	Ni(OH)2s 0.0 0.0          #20
#	NiCO3s 0.0 0.0            #21
#	Co(OH)2s 0.0 0.0          #22
#	CoCO3s 0.0 0.0            #23
#	Rutherfordine 0.0 0.0     #24
#	CaUO4s 0.0 0.0            #25
#	Schoepite 0.0 0.0        #26
#	b-UO2(OH)2(s) 0.0 0.0     #27
#	Soddyite 0.0 0.0          #28
#	Uranophane 0.0 0.0        #29
#	Na-weeksite 0.0 0.0       #30
#	Liebigite 0.0 0.0
#	UO2SO4(H2O)2.5s 0.0 0.0   #31
#	UO2SO4(H2O)3s 0.0 0.0     #32
#	UO2SO4(H2O)3.5s 0.0 0.0   #33
#	#Strontianite 0.0 0.0     #34
#	#Celestite 0.0 0.0        #35
#	CO2(g) -3.5
SURFACE 0
#	Hbo_w Basaluminite equilibrium_phase 0.2 2496.0 
#	-equilibrate 0 
SOLUTION 1-14
	pH        3.55
	N(5)	45.758 #53.306
	S(6)	30.918 #27.764
	Cl	 9.026 #8.603
#	Al	 6.115
	Al	 7.0
	Na	 7.610 charge
	Ca	 7.610 #9.306
	Mg	 2.084 #2.996
	Si	 1.168
	Mn(2)	 1.0 #1.229 #1.585
	Ni	 0.155 #0.143
	U	 0.172
	Co	 0.009 #0.015
	C(4)       1.0 CO2(g) -3.5
	K	4.348
EQUILIBRIUM_PHASES 1-14
	Al(OH)3(a) 0.0 0.0        #1
	Basaluminite 0.0 0.0      #2
	#Alunite 0.0 0.0          #3
	#Gibbsite 0.0 0.0         #4
	#Jurbanite 0.0 0.0        #5
	#MGibbsite 0.0 0.0        #7
	#Kaolinite 0.0 0.0        #6
	SiO2(a) 0.0 0.0           #8
	CaMg(CO3)2s 0.0 0.0       #9
	CaCO3H2Os 0.0 0.0         #10
	#Ca0.85Mg0.15CO3s 0.0 0.0  #11
	Portlandite 0.0 0.0       #12 Ca(OH)2
	Gypsum 0.0 0.0            #13 CaSO4.2H2O
	MgCO3s 0.0 0.0            #14 MgCO3
	Mg(OH)2s 0.0 0.0          #15 Mg(OH)2
	MnCO3s 0.0 0.0            #16 synthetic rhodocrosite
	Pyrochroite 0.0 0.0       #17 Mn(OH)2
	#FeCo0.1(OH)3.2s 0.0 0.0   #18
	Fe(OH)3(a) 0.0 0.0       #19
	Ni(OH)2s 0.0 0.0          #20
	NiCO3s 0.0 0.0            #21
	Co(OH)2s 0.0 0.0          #22
	CoCO3s 0.0 0.0            #23
	Rutherfordine 0.0 0.0     #24
	CaUO4s 0.0 0.0            #25
	Schoepite 0.0 0.0        #26
	b-UO2(OH)2(s) 0.0 0.0     #27
	Soddyite 0.0 0.0          #28
	Uranophane 0.0 0.0        #29
	Na-weeksite 0.0 0.0       #30
	Liebigite 0.0 0.0
	UO2SO4(H2O)2.5s 0.0 0.0   #31
	UO2SO4(H2O)3s 0.0 0.0     #32
	UO2SO4(H2O)3.5s 0.0 0.0   #33
	#Strontianite 0.0 0.0     #34
	#Celestite 0.0 0.0        #35
SURFACE 1-14
	Hfo_w 0.12 600 63.4
	Hfo_s 0.003
	Hgo_w 0.05 32.0 19.44
#	Hbo_w Basaluminite equilibrium_phase 0.2 2496.0 
	-equilibrate 1
EXCHANGE 1-14
	X 0.48
	-equilibrate 1
END

TRANSPORT
	-cells 14
	-lengths 0.01
	-dispersivities 0.01
	-shifts 1
	-flow_direction forward
	-time_step 276.4 
	-boundary_condition flux flux
        -punch_cells 1 14
        -punch_frequency 100
END
    
USE SOLUTION 0
USE EQUILIBRIUM_PHASES 0 
USE SURFACE 0
REACTION 0 
	NaOH 0.86; Na2CO3 0.07;  NaBr 1.0e-6
	3.0493e-6
MIX 0
	 0 0.996161
        14 0.003839
SAVE SOLUTION 0 
SAVE EQUILIBRIUM_PHASES 0 
SAVE SURFACE 0
END

TRANSPORT
	 -shifts 1
END   

USE SOLUTION 0; USE EQUILIBRIUM_PHASES 0; USE REACTION 0; USE MIX 0; USE SURFACE 0; SAVE SOLUTION 0; SAVE EQUILIBRIUM_PHASES 0; SAVE SURFACE 0; END; TRANSPORT; -shifts 1; END   
USE SOLUTION 0; USE EQUILIBRIUM_PHASES 0; USE REACTION 0; USE MIX 0; USE SURFACE 0; SAVE SOLUTION 0; SAVE EQUILIBRIUM_PHASES 0; SAVE SURFACE 0; END; TRANSPORT; -shifts 1; END   
USE SOLUTION 0; USE EQUILIBRIUM_PHASES 0; USE REACTION 0; USE MIX 0; USE SURFACE 0; SAVE SOLUTION 0; SAVE EQUILIBRIUM_PHASES 0; SAVE SURFACE 0; END; TRANSPORT; -shifts 1; END   
USE SOLUTION 0; USE EQUILIBRIUM_PHASES 0; USE REACTION 0; USE MIX 0; USE SURFACE 0; SAVE SOLUTION 0; SAVE EQUILIBRIUM_PHASES 0; SAVE SURFACE 0; END; TRANSPORT; -shifts 1; END   
USE SOLUTION 0; USE EQUILIBRIUM_PHASES 0; USE REACTION 0; USE MIX 0; USE SURFACE 0; SAVE SOLUTION 0; SAVE EQUILIBRIUM_PHASES 0; SAVE SURFACE 0; END; TRANSPORT; -shifts 1; END   
USE SOLUTION 0; USE EQUILIBRIUM_PHASES 0; USE REACTION 0; USE MIX 0; USE SURFACE 0; SAVE SOLUTION 0; SAVE EQUILIBRIUM_PHASES 0; SAVE SURFACE 0; END; TRANSPORT; -shifts 1; END   
USE SOLUTION 0; USE EQUILIBRIUM_PHASES 0; USE REACTION 0; USE MIX 0; USE SURFACE 0; SAVE SOLUTION 0; SAVE EQUILIBRIUM_PHASES 0; SAVE SURFACE 0; END; TRANSPORT; -shifts 1; END   
USE SOLUTION 0; USE EQUILIBRIUM_PHASES 0; USE REACTION 0; USE MIX 0; USE SURFACE 0; SAVE SOLUTION 0; SAVE EQUILIBRIUM_PHASES 0; SAVE SURFACE 0; END; TRANSPORT; -shifts 1; END   
USE SOLUTION 0; USE EQUILIBRIUM_PHASES 0; USE REACTION 0; USE MIX 0; USE SURFACE 0; SAVE SOLUTION 0; SAVE EQUILIBRIUM_PHASES 0; SAVE SURFACE 0; END; TRANSPORT; -shifts 1; END   
USE SOLUTION 0; USE EQUILIBRIUM_PHASES 0; USE REACTION 0; USE MIX 0; USE SURFACE 0; SAVE SOLUTION 0; SAVE EQUILIBRIUM_PHASES 0; SAVE SURFACE 0; END; TRANSPORT; -shifts 1; END  #10 
USE SOLUTION 0; USE EQUILIBRIUM_PHASES 0; USE REACTION 0; USE MIX 0; USE SURFACE 0; SAVE SOLUTION 0; SAVE EQUILIBRIUM_PHASES 0; SAVE SURFACE 0; END; TRANSPORT; -shifts 1; END   
USE SOLUTION 0; USE EQUILIBRIUM_PHASES 0; USE REACTION 0; USE MIX 0; USE SURFACE 0; SAVE SOLUTION 0; SAVE EQUILIBRIUM_PHASES 0; SAVE SURFACE 0; END; TRANSPORT; -shifts 1; END   
USE SOLUTION 0; USE EQUILIBRIUM_PHASES 0; USE REACTION 0; USE MIX 0; USE SURFACE 0; SAVE SOLUTION 0; SAVE EQUILIBRIUM_PHASES 0; SAVE SURFACE 0; END; TRANSPORT; -shifts 1; END   
USE SOLUTION 0; USE EQUILIBRIUM_PHASES 0; USE REACTION 0; USE MIX 0; USE SURFACE 0; SAVE SOLUTION 0; SAVE EQUILIBRIUM_PHASES 0; SAVE SURFACE 0; END; TRANSPORT; -shifts 1; END   
USE SOLUTION 0; USE EQUILIBRIUM_PHASES 0; USE REACTION 0; USE MIX 0; USE SURFACE 0; SAVE SOLUTION 0; SAVE EQUILIBRIUM_PHASES 0; SAVE SURFACE 0; END; TRANSPORT; -shifts 1; END   
USE SOLUTION 0; USE EQUILIBRIUM_PHASES 0; USE REACTION 0; USE MIX 0; USE SURFACE 0; SAVE SOLUTION 0; SAVE EQUILIBRIUM_PHASES 0; SAVE SURFACE 0; END; TRANSPORT; -shifts 1; END   
USE SOLUTION 0; USE EQUILIBRIUM_PHASES 0; USE REACTION 0; USE MIX 0; USE SURFACE 0; SAVE SOLUTION 0; SAVE EQUILIBRIUM_PHASES 0; SAVE SURFACE 0; END; TRANSPORT; -shifts 1; END   
USE SOLUTION 0; USE EQUILIBRIUM_PHASES 0; USE REACTION 0; USE MIX 0; USE SURFACE 0; SAVE SOLUTION 0; SAVE EQUILIBRIUM_PHASES 0; SAVE SURFACE 0; END; TRANSPORT; -shifts 1; END   
USE SOLUTION 0; USE EQUILIBRIUM_PHASES 0; USE REACTION 0; USE MIX 0; USE SURFACE 0; SAVE SOLUTION 0; SAVE EQUILIBRIUM_PHASES 0; SAVE SURFACE 0; END; TRANSPORT; -shifts 1; END   
USE SOLUTION 0; USE EQUILIBRIUM_PHASES 0; USE REACTION 0; USE MIX 0; USE SURFACE 0; SAVE SOLUTION 0; SAVE EQUILIBRIUM_PHASES 0; SAVE SURFACE 0; END; TRANSPORT; -shifts 1; END  #20 
USE SOLUTION 0; USE EQUILIBRIUM_PHASES 0; USE REACTION 0; USE MIX 0; USE SURFACE 0; SAVE SOLUTION 0; SAVE EQUILIBRIUM_PHASES 0; SAVE SURFACE 0; END; TRANSPORT; -shifts 1; END   
USE SOLUTION 0; USE EQUILIBRIUM_PHASES 0; USE REACTION 0; USE MIX 0; USE SURFACE 0; SAVE SOLUTION 0; SAVE EQUILIBRIUM_PHASES 0; SAVE SURFACE 0; END; TRANSPORT; -shifts 1; END   
USE SOLUTION 0; USE EQUILIBRIUM_PHASES 0; USE REACTION 0; USE MIX 0; USE SURFACE 0; SAVE SOLUTION 0; SAVE EQUILIBRIUM_PHASES 0; SAVE SURFACE 0; END; TRANSPORT; -shifts 1; END   
USE SOLUTION 0; USE EQUILIBRIUM_PHASES 0; USE REACTION 0; USE MIX 0; USE SURFACE 0; SAVE SOLUTION 0; SAVE EQUILIBRIUM_PHASES 0; SAVE SURFACE 0; END; TRANSPORT; -shifts 1; END   
USE SOLUTION 0; USE EQUILIBRIUM_PHASES 0; USE REACTION 0; USE MIX 0; USE SURFACE 0; SAVE SOLUTION 0; SAVE EQUILIBRIUM_PHASES 0; SAVE SURFACE 0; END; TRANSPORT; -shifts 1; END   
USE SOLUTION 0; USE EQUILIBRIUM_PHASES 0; USE REACTION 0; USE MIX 0; USE SURFACE 0; SAVE SOLUTION 0; SAVE EQUILIBRIUM_PHASES 0; SAVE SURFACE 0; END; TRANSPORT; -shifts 1; END   
USE SOLUTION 0; USE EQUILIBRIUM_PHASES 0; USE REACTION 0; USE MIX 0; USE SURFACE 0; SAVE SOLUTION 0; SAVE EQUILIBRIUM_PHASES 0; SAVE SURFACE 0; END; TRANSPORT; -shifts 1; END   
USE SOLUTION 0; USE EQUILIBRIUM_PHASES 0; USE REACTION 0; USE MIX 0; USE SURFACE 0; SAVE SOLUTION 0; SAVE EQUILIBRIUM_PHASES 0; SAVE SURFACE 0; END; TRANSPORT; -shifts 1; END   
USE SOLUTION 0; USE EQUILIBRIUM_PHASES 0; USE REACTION 0; USE MIX 0; USE SURFACE 0; SAVE SOLUTION 0; SAVE EQUILIBRIUM_PHASES 0; SAVE SURFACE 0; END; TRANSPORT; -shifts 1; END   
USE SOLUTION 0; USE EQUILIBRIUM_PHASES 0; USE REACTION 0; USE MIX 0; USE SURFACE 0; SAVE SOLUTION 0; SAVE EQUILIBRIUM_PHASES 0; SAVE SURFACE 0; END; TRANSPORT; -shifts 1; END  #30 
USE SOLUTION 0; USE EQUILIBRIUM_PHASES 0; USE REACTION 0; USE MIX 0; USE SURFACE 0; SAVE SOLUTION 0; SAVE EQUILIBRIUM_PHASES 0; SAVE SURFACE 0; END; TRANSPORT; -shifts 1; END   
USE SOLUTION 0; USE EQUILIBRIUM_PHASES 0; USE REACTION 0; USE MIX 0; USE SURFACE 0; SAVE SOLUTION 0; SAVE EQUILIBRIUM_PHASES 0; SAVE SURFACE 0; END; TRANSPORT; -shifts 1; END   
USE SOLUTION 0; USE EQUILIBRIUM_PHASES 0; USE REACTION 0; USE MIX 0; USE SURFACE 0; SAVE SOLUTION 0; SAVE EQUILIBRIUM_PHASES 0; SAVE SURFACE 0; END; TRANSPORT; -shifts 1; END   
USE SOLUTION 0; USE EQUILIBRIUM_PHASES 0; USE REACTION 0; USE MIX 0; USE SURFACE 0; SAVE SOLUTION 0; SAVE EQUILIBRIUM_PHASES 0; SAVE SURFACE 0; END; TRANSPORT; -shifts 1; END   
USE SOLUTION 0; USE EQUILIBRIUM_PHASES 0; USE REACTION 0; USE MIX 0; USE SURFACE 0; SAVE SOLUTION 0; SAVE EQUILIBRIUM_PHASES 0; SAVE SURFACE 0; END; TRANSPORT; -shifts 1; END   
USE SOLUTION 0; USE EQUILIBRIUM_PHASES 0; USE REACTION 0; USE MIX 0; USE SURFACE 0; SAVE SOLUTION 0; SAVE EQUILIBRIUM_PHASES 0; SAVE SURFACE 0; END; TRANSPORT; -shifts 1; END   
USE SOLUTION 0; USE EQUILIBRIUM_PHASES 0; USE REACTION 0; USE MIX 0; USE SURFACE 0; SAVE SOLUTION 0; SAVE EQUILIBRIUM_PHASES 0; SAVE SURFACE 0; END; TRANSPORT; -shifts 1; END   
USE SOLUTION 0; USE EQUILIBRIUM_PHASES 0; USE REACTION 0; USE MIX 0; USE SURFACE 0; SAVE SOLUTION 0; SAVE EQUILIBRIUM_PHASES 0; SAVE SURFACE 0; END; TRANSPORT; -shifts 1; END   
USE SOLUTION 0; USE EQUILIBRIUM_PHASES 0; USE REACTION 0; USE MIX 0; USE SURFACE 0; SAVE SOLUTION 0; SAVE EQUILIBRIUM_PHASES 0; SAVE SURFACE 0; END; TRANSPORT; -shifts 1; END   
USE SOLUTION 0; USE EQUILIBRIUM_PHASES 0; USE REACTION 0; USE MIX 0; USE SURFACE 0; SAVE SOLUTION 0; SAVE EQUILIBRIUM_PHASES 0; SAVE SURFACE 0; END; TRANSPORT; -shifts 1; END  #40 
USE SOLUTION 0; USE EQUILIBRIUM_PHASES 0; USE REACTION 0; USE MIX 0; USE SURFACE 0; SAVE SOLUTION 0; SAVE EQUILIBRIUM_PHASES 0; SAVE SURFACE 0; END; TRANSPORT; -shifts 1; END   
USE SOLUTION 0; USE EQUILIBRIUM_PHASES 0; USE REACTION 0; USE MIX 0; USE SURFACE 0; SAVE SOLUTION 0; SAVE EQUILIBRIUM_PHASES 0; SAVE SURFACE 0; END; TRANSPORT; -shifts 1; END   
USE SOLUTION 0; USE EQUILIBRIUM_PHASES 0; USE REACTION 0; USE MIX 0; USE SURFACE 0; SAVE SOLUTION 0; SAVE EQUILIBRIUM_PHASES 0; SAVE SURFACE 0; END; TRANSPORT; -shifts 1; END   
USE SOLUTION 0; USE EQUILIBRIUM_PHASES 0; USE REACTION 0; USE MIX 0; USE SURFACE 0; SAVE SOLUTION 0; SAVE EQUILIBRIUM_PHASES 0; SAVE SURFACE 0; END; TRANSPORT; -shifts 1; END   
USE SOLUTION 0; USE EQUILIBRIUM_PHASES 0; USE REACTION 0; USE MIX 0; USE SURFACE 0; SAVE SOLUTION 0; SAVE EQUILIBRIUM_PHASES 0; SAVE SURFACE 0; END; TRANSPORT; -shifts 1; END   
USE SOLUTION 0; USE EQUILIBRIUM_PHASES 0; USE REACTION 0; USE MIX 0; USE SURFACE 0; SAVE SOLUTION 0; SAVE EQUILIBRIUM_PHASES 0; SAVE SURFACE 0; END; TRANSPORT; -shifts 1; END   
USE SOLUTION 0; USE EQUILIBRIUM_PHASES 0; USE REACTION 0; USE MIX 0; USE SURFACE 0; SAVE SOLUTION 0; SAVE EQUILIBRIUM_PHASES 0; SAVE SURFACE 0; END; TRANSPORT; -shifts 1; END   
USE SOLUTION 0; USE EQUILIBRIUM_PHASES 0; USE REACTION 0; USE MIX 0; USE SURFACE 0; SAVE SOLUTION 0; SAVE EQUILIBRIUM_PHASES 0; SAVE SURFACE 0; END; TRANSPORT; -shifts 1; END   
USE SOLUTION 0; USE EQUILIBRIUM_PHASES 0; USE REACTION 0; USE MIX 0; USE SURFACE 0; SAVE SOLUTION 0; SAVE EQUILIBRIUM_PHASES 0; SAVE SURFACE 0; END; TRANSPORT; -shifts 1; END   
USE SOLUTION 0; USE EQUILIBRIUM_PHASES 0; USE REACTION 0; USE MIX 0; USE SURFACE 0; SAVE SOLUTION 0; SAVE EQUILIBRIUM_PHASES 0; SAVE SURFACE 0; END; TRANSPORT; -shifts 1; END  #50 
USE SOLUTION 0; USE EQUILIBRIUM_PHASES 0; USE REACTION 0; USE MIX 0; USE SURFACE 0; SAVE SOLUTION 0; SAVE EQUILIBRIUM_PHASES 0; SAVE SURFACE 0; END; TRANSPORT; -shifts 1; END   
USE SOLUTION 0; USE EQUILIBRIUM_PHASES 0; USE REACTION 0; USE MIX 0; USE SURFACE 0; SAVE SOLUTION 0; SAVE EQUILIBRIUM_PHASES 0; SAVE SURFACE 0; END; TRANSPORT; -shifts 1; END   
USE SOLUTION 0; USE EQUILIBRIUM_PHASES 0; USE REACTION 0; USE MIX 0; USE SURFACE 0; SAVE SOLUTION 0; SAVE EQUILIBRIUM_PHASES 0; SAVE SURFACE 0; END; TRANSPORT; -shifts 1; END   
USE SOLUTION 0; USE EQUILIBRIUM_PHASES 0; USE REACTION 0; USE MIX 0; USE SURFACE 0; SAVE SOLUTION 0; SAVE EQUILIBRIUM_PHASES 0; SAVE SURFACE 0; END; TRANSPORT; -shifts 1; END   
USE SOLUTION 0; USE EQUILIBRIUM_PHASES 0; USE REACTION 0; USE MIX 0; USE SURFACE 0; SAVE SOLUTION 0; SAVE EQUILIBRIUM_PHASES 0; SAVE SURFACE 0; END; TRANSPORT; -shifts 1; END   
USE SOLUTION 0; USE EQUILIBRIUM_PHASES 0; USE REACTION 0; USE MIX 0; USE SURFACE 0; SAVE SOLUTION 0; SAVE EQUILIBRIUM_PHASES 0; SAVE SURFACE 0; END; TRANSPORT; -shifts 1; END   
USE SOLUTION 0; USE EQUILIBRIUM_PHASES 0; USE REACTION 0; USE MIX 0; USE SURFACE 0; SAVE SOLUTION 0; SAVE EQUILIBRIUM_PHASES 0; SAVE SURFACE 0; END; TRANSPORT; -shifts 1; END   
USE SOLUTION 0; USE EQUILIBRIUM_PHASES 0; USE REACTION 0; USE MIX 0; USE SURFACE 0; SAVE SOLUTION 0; SAVE EQUILIBRIUM_PHASES 0; SAVE SURFACE 0; END; TRANSPORT; -shifts 1; END   
USE SOLUTION 0; USE EQUILIBRIUM_PHASES 0; USE REACTION 0; USE MIX 0; USE SURFACE 0; SAVE SOLUTION 0; SAVE EQUILIBRIUM_PHASES 0; SAVE SURFACE 0; END; TRANSPORT; -shifts 1; END   
USE SOLUTION 0; USE EQUILIBRIUM_PHASES 0; USE REACTION 0; USE MIX 0; USE SURFACE 0; SAVE SOLUTION 0; SAVE EQUILIBRIUM_PHASES 0; SAVE SURFACE 0; END; TRANSPORT; -shifts 1; END  #60 
USE SOLUTION 0; USE EQUILIBRIUM_PHASES 0; USE REACTION 0; USE MIX 0; USE SURFACE 0; SAVE SOLUTION 0; SAVE EQUILIBRIUM_PHASES 0; SAVE SURFACE 0; END; TRANSPORT; -shifts 1; END   
USE SOLUTION 0; USE EQUILIBRIUM_PHASES 0; USE REACTION 0; USE MIX 0; USE SURFACE 0; SAVE SOLUTION 0; SAVE EQUILIBRIUM_PHASES 0; SAVE SURFACE 0; END; TRANSPORT; -shifts 1; END   
USE SOLUTION 0; USE EQUILIBRIUM_PHASES 0; USE REACTION 0; USE MIX 0; USE SURFACE 0; SAVE SOLUTION 0; SAVE EQUILIBRIUM_PHASES 0; SAVE SURFACE 0; END; TRANSPORT; -shifts 1; END   
USE SOLUTION 0; USE EQUILIBRIUM_PHASES 0; USE REACTION 0; USE MIX 0; USE SURFACE 0; SAVE SOLUTION 0; SAVE EQUILIBRIUM_PHASES 0; SAVE SURFACE 0; END; TRANSPORT; -shifts 1; END   
USE SOLUTION 0; USE EQUILIBRIUM_PHASES 0; USE REACTION 0; USE MIX 0; USE SURFACE 0; SAVE SOLUTION 0; SAVE EQUILIBRIUM_PHASES 0; SAVE SURFACE 0; END; TRANSPORT; -shifts 1; END   
USE SOLUTION 0; USE EQUILIBRIUM_PHASES 0; USE REACTION 0; USE MIX 0; USE SURFACE 0; SAVE SOLUTION 0; SAVE EQUILIBRIUM_PHASES 0; SAVE SURFACE 0; END; TRANSPORT; -shifts 1; END   
USE SOLUTION 0; USE EQUILIBRIUM_PHASES 0; USE REACTION 0; USE MIX 0; USE SURFACE 0; SAVE SOLUTION 0; SAVE EQUILIBRIUM_PHASES 0; SAVE SURFACE 0; END; TRANSPORT; -shifts 1; END   
USE SOLUTION 0; USE EQUILIBRIUM_PHASES 0; USE REACTION 0; USE MIX 0; USE SURFACE 0; SAVE SOLUTION 0; SAVE EQUILIBRIUM_PHASES 0; SAVE SURFACE 0; END; TRANSPORT; -shifts 1; END   
USE SOLUTION 0; USE EQUILIBRIUM_PHASES 0; USE REACTION 0; USE MIX 0; USE SURFACE 0; SAVE SOLUTION 0; SAVE EQUILIBRIUM_PHASES 0; SAVE SURFACE 0; END; TRANSPORT; -shifts 1; END   
USE SOLUTION 0; USE EQUILIBRIUM_PHASES 0; USE REACTION 0; USE MIX 0; USE SURFACE 0; SAVE SOLUTION 0; SAVE EQUILIBRIUM_PHASES 0; SAVE SURFACE 0; END; TRANSPORT; -shifts 1; END  #70 
USE SOLUTION 0; USE EQUILIBRIUM_PHASES 0; USE REACTION 0; USE MIX 0; USE SURFACE 0; SAVE SOLUTION 0; SAVE EQUILIBRIUM_PHASES 0; SAVE SURFACE 0; END; TRANSPORT; -shifts 1; END   
USE SOLUTION 0; USE EQUILIBRIUM_PHASES 0; USE REACTION 0; USE MIX 0; USE SURFACE 0; SAVE SOLUTION 0; SAVE EQUILIBRIUM_PHASES 0; SAVE SURFACE 0; END; TRANSPORT; -shifts 1; END   
USE SOLUTION 0; USE EQUILIBRIUM_PHASES 0; USE REACTION 0; USE MIX 0; USE SURFACE 0; SAVE SOLUTION 0; SAVE EQUILIBRIUM_PHASES 0; SAVE SURFACE 0; END; TRANSPORT; -shifts 1; END   
USE SOLUTION 0; USE EQUILIBRIUM_PHASES 0; USE REACTION 0; USE MIX 0; USE SURFACE 0; SAVE SOLUTION 0; SAVE EQUILIBRIUM_PHASES 0; SAVE SURFACE 0; END; TRANSPORT; -shifts 1; END   
USE SOLUTION 0; USE EQUILIBRIUM_PHASES 0; USE REACTION 0; USE MIX 0; USE SURFACE 0; SAVE SOLUTION 0; SAVE EQUILIBRIUM_PHASES 0; SAVE SURFACE 0; END; TRANSPORT; -shifts 1; END   
USE SOLUTION 0; USE EQUILIBRIUM_PHASES 0; USE REACTION 0; USE MIX 0; USE SURFACE 0; SAVE SOLUTION 0; SAVE EQUILIBRIUM_PHASES 0; SAVE SURFACE 0; END; TRANSPORT; -shifts 1; END   
USE SOLUTION 0; USE EQUILIBRIUM_PHASES 0; USE REACTION 0; USE MIX 0; USE SURFACE 0; SAVE SOLUTION 0; SAVE EQUILIBRIUM_PHASES 0; SAVE SURFACE 0; END; TRANSPORT; -shifts 1; END   
USE SOLUTION 0; USE EQUILIBRIUM_PHASES 0; USE REACTION 0; USE MIX 0; USE SURFACE 0; SAVE SOLUTION 0; SAVE EQUILIBRIUM_PHASES 0; SAVE SURFACE 0; END; TRANSPORT; -shifts 1; END   
USE SOLUTION 0; USE EQUILIBRIUM_PHASES 0; USE REACTION 0; USE MIX 0; USE SURFACE 0; SAVE SOLUTION 0; SAVE EQUILIBRIUM_PHASES 0; SAVE SURFACE 0; END; TRANSPORT; -shifts 1; END   
USE SOLUTION 0; USE EQUILIBRIUM_PHASES 0; USE REACTION 0; USE MIX 0; USE SURFACE 0; SAVE SOLUTION 0; SAVE EQUILIBRIUM_PHASES 0; SAVE SURFACE 0; END; TRANSPORT; -shifts 1; END  #80 
USE SOLUTION 0; USE EQUILIBRIUM_PHASES 0; USE REACTION 0; USE MIX 0; USE SURFACE 0; SAVE SOLUTION 0; SAVE EQUILIBRIUM_PHASES 0; SAVE SURFACE 0; END; TRANSPORT; -shifts 1; END   
USE SOLUTION 0; USE EQUILIBRIUM_PHASES 0; USE REACTION 0; USE MIX 0; USE SURFACE 0; SAVE SOLUTION 0; SAVE EQUILIBRIUM_PHASES 0; SAVE SURFACE 0; END; TRANSPORT; -shifts 1; END   
USE SOLUTION 0; USE EQUILIBRIUM_PHASES 0; USE REACTION 0; USE MIX 0; USE SURFACE 0; SAVE SOLUTION 0; SAVE EQUILIBRIUM_PHASES 0; SAVE SURFACE 0; END; TRANSPORT; -shifts 1; END   
USE SOLUTION 0; USE EQUILIBRIUM_PHASES 0; USE REACTION 0; USE MIX 0; USE SURFACE 0; SAVE SOLUTION 0; SAVE EQUILIBRIUM_PHASES 0; SAVE SURFACE 0; END; TRANSPORT; -shifts 1; END   
USE SOLUTION 0; USE EQUILIBRIUM_PHASES 0; USE REACTION 0; USE MIX 0; USE SURFACE 0; SAVE SOLUTION 0; SAVE EQUILIBRIUM_PHASES 0; SAVE SURFACE 0; END; TRANSPORT; -shifts 1; END   
USE SOLUTION 0; USE EQUILIBRIUM_PHASES 0; USE REACTION 0; USE MIX 0; USE SURFACE 0; SAVE SOLUTION 0; SAVE EQUILIBRIUM_PHASES 0; SAVE SURFACE 0; END; TRANSPORT; -shifts 1; END   
USE SOLUTION 0; USE EQUILIBRIUM_PHASES 0; USE REACTION 0; USE MIX 0; USE SURFACE 0; SAVE SOLUTION 0; SAVE EQUILIBRIUM_PHASES 0; SAVE SURFACE 0; END; TRANSPORT; -shifts 1; END   
USE SOLUTION 0; USE EQUILIBRIUM_PHASES 0; USE REACTION 0; USE MIX 0; USE SURFACE 0; SAVE SOLUTION 0; SAVE EQUILIBRIUM_PHASES 0; SAVE SURFACE 0; END; TRANSPORT; -shifts 1; END   
USE SOLUTION 0; USE EQUILIBRIUM_PHASES 0; USE REACTION 0; USE MIX 0; USE SURFACE 0; SAVE SOLUTION 0; SAVE EQUILIBRIUM_PHASES 0; SAVE SURFACE 0; END; TRANSPORT; -shifts 1; END   
USE SOLUTION 0; USE EQUILIBRIUM_PHASES 0; USE REACTION 0; USE MIX 0; USE SURFACE 0; SAVE SOLUTION 0; SAVE EQUILIBRIUM_PHASES 0; SAVE SURFACE 0; END; TRANSPORT; -shifts 1; END  #90 
USE SOLUTION 0; USE EQUILIBRIUM_PHASES 0; USE REACTION 0; USE MIX 0; USE SURFACE 0; SAVE SOLUTION 0; SAVE EQUILIBRIUM_PHASES 0; SAVE SURFACE 0; END; TRANSPORT; -shifts 1; END   
USE SOLUTION 0; USE EQUILIBRIUM_PHASES 0; USE REACTION 0; USE MIX 0; USE SURFACE 0; SAVE SOLUTION 0; SAVE EQUILIBRIUM_PHASES 0; SAVE SURFACE 0; END; TRANSPORT; -shifts 1; END   
USE SOLUTION 0; USE EQUILIBRIUM_PHASES 0; USE REACTION 0; USE MIX 0; USE SURFACE 0; SAVE SOLUTION 0; SAVE EQUILIBRIUM_PHASES 0; SAVE SURFACE 0; END; TRANSPORT; -shifts 1; END   
USE SOLUTION 0; USE EQUILIBRIUM_PHASES 0; USE REACTION 0; USE MIX 0; USE SURFACE 0; SAVE SOLUTION 0; SAVE EQUILIBRIUM_PHASES 0; SAVE SURFACE 0; END; TRANSPORT; -shifts 1; END   
USE SOLUTION 0; USE EQUILIBRIUM_PHASES 0; USE REACTION 0; USE MIX 0; USE SURFACE 0; SAVE SOLUTION 0; SAVE EQUILIBRIUM_PHASES 0; SAVE SURFACE 0; END; TRANSPORT; -shifts 1; END   
USE SOLUTION 0; USE EQUILIBRIUM_PHASES 0; USE REACTION 0; USE MIX 0; USE SURFACE 0; SAVE SOLUTION 0; SAVE EQUILIBRIUM_PHASES 0; SAVE SURFACE 0; END; TRANSPORT; -shifts 1; END   
USE SOLUTION 0; USE EQUILIBRIUM_PHASES 0; USE REACTION 0; USE MIX 0; USE SURFACE 0; SAVE SOLUTION 0; SAVE EQUILIBRIUM_PHASES 0; SAVE SURFACE 0; END; TRANSPORT; -shifts 1; END   
USE SOLUTION 0; USE EQUILIBRIUM_PHASES 0; USE REACTION 0; USE MIX 0; USE SURFACE 0; SAVE SOLUTION 0; SAVE EQUILIBRIUM_PHASES 0; SAVE SURFACE 0; END; TRANSPORT; -shifts 1; END   
USE SOLUTION 0; USE EQUILIBRIUM_PHASES 0; USE REACTION 0; USE MIX 0; USE SURFACE 0; SAVE SOLUTION 0; SAVE EQUILIBRIUM_PHASES 0; SAVE SURFACE 0; END; TRANSPORT; -shifts 1; END   
USE SOLUTION 0; USE EQUILIBRIUM_PHASES 0; USE REACTION 0; USE MIX 0; USE SURFACE 0; SAVE SOLUTION 0; SAVE EQUILIBRIUM_PHASES 0; SAVE SURFACE 0; END; TRANSPORT; -shifts 1; END  #100 
USE SOLUTION 0; USE EQUILIBRIUM_PHASES 0; USE REACTION 0; USE MIX 0; USE SURFACE 0; SAVE SOLUTION 0; SAVE EQUILIBRIUM_PHASES 0; SAVE SURFACE 0; END; TRANSPORT; -shifts 1; END   
USE SOLUTION 0; USE EQUILIBRIUM_PHASES 0; USE REACTION 0; USE MIX 0; USE SURFACE 0; SAVE SOLUTION 0; SAVE EQUILIBRIUM_PHASES 0; SAVE SURFACE 0; END; TRANSPORT; -shifts 1; END   
USE SOLUTION 0; USE EQUILIBRIUM_PHASES 0; USE REACTION 0; USE MIX 0; USE SURFACE 0; SAVE SOLUTION 0; SAVE EQUILIBRIUM_PHASES 0; SAVE SURFACE 0; END; TRANSPORT; -shifts 1; END   
USE SOLUTION 0; USE EQUILIBRIUM_PHASES 0; USE REACTION 0; USE MIX 0; USE SURFACE 0; SAVE SOLUTION 0; SAVE EQUILIBRIUM_PHASES 0; SAVE SURFACE 0; END; TRANSPORT; -shifts 1; END   
USE SOLUTION 0; USE EQUILIBRIUM_PHASES 0; USE REACTION 0; USE MIX 0; USE SURFACE 0; SAVE SOLUTION 0; SAVE EQUILIBRIUM_PHASES 0; SAVE SURFACE 0; END; TRANSPORT; -shifts 1; END   
USE SOLUTION 0; USE EQUILIBRIUM_PHASES 0; USE REACTION 0; USE MIX 0; USE SURFACE 0; SAVE SOLUTION 0; SAVE EQUILIBRIUM_PHASES 0; SAVE SURFACE 0; END; TRANSPORT; -shifts 1; END   
USE SOLUTION 0; USE EQUILIBRIUM_PHASES 0; USE REACTION 0; USE MIX 0; USE SURFACE 0; SAVE SOLUTION 0; SAVE EQUILIBRIUM_PHASES 0; SAVE SURFACE 0; END; TRANSPORT; -shifts 1; END   
USE SOLUTION 0; USE EQUILIBRIUM_PHASES 0; USE REACTION 0; USE MIX 0; USE SURFACE 0; SAVE SOLUTION 0; SAVE EQUILIBRIUM_PHASES 0; SAVE SURFACE 0; END; TRANSPORT; -shifts 1; END   
USE SOLUTION 0; USE EQUILIBRIUM_PHASES 0; USE REACTION 0; USE MIX 0; USE SURFACE 0; SAVE SOLUTION 0; SAVE EQUILIBRIUM_PHASES 0; SAVE SURFACE 0; END; TRANSPORT; -shifts 1; END   
USE SOLUTION 0; USE EQUILIBRIUM_PHASES 0; USE REACTION 0; USE MIX 0; USE SURFACE 0; SAVE SOLUTION 0; SAVE EQUILIBRIUM_PHASES 0; SAVE SURFACE 0; END; TRANSPORT; -shifts 1; END  #10 
USE SOLUTION 0; USE EQUILIBRIUM_PHASES 0; USE REACTION 0; USE MIX 0; USE SURFACE 0; SAVE SOLUTION 0; SAVE EQUILIBRIUM_PHASES 0; SAVE SURFACE 0; END; TRANSPORT; -shifts 1; END   
USE SOLUTION 0; USE EQUILIBRIUM_PHASES 0; USE REACTION 0; USE MIX 0; USE SURFACE 0; SAVE SOLUTION 0; SAVE EQUILIBRIUM_PHASES 0; SAVE SURFACE 0; END; TRANSPORT; -shifts 1; END   
USE SOLUTION 0; USE EQUILIBRIUM_PHASES 0; USE REACTION 0; USE MIX 0; USE SURFACE 0; SAVE SOLUTION 0; SAVE EQUILIBRIUM_PHASES 0; SAVE SURFACE 0; END; TRANSPORT; -shifts 1; END   
USE SOLUTION 0; USE EQUILIBRIUM_PHASES 0; USE REACTION 0; USE MIX 0; USE SURFACE 0; SAVE SOLUTION 0; SAVE EQUILIBRIUM_PHASES 0; SAVE SURFACE 0; END; TRANSPORT; -shifts 1; END   
USE SOLUTION 0; USE EQUILIBRIUM_PHASES 0; USE REACTION 0; USE MIX 0; USE SURFACE 0; SAVE SOLUTION 0; SAVE EQUILIBRIUM_PHASES 0; SAVE SURFACE 0; END; TRANSPORT; -shifts 1; END   
USE SOLUTION 0; USE EQUILIBRIUM_PHASES 0; USE REACTION 0; USE MIX 0; USE SURFACE 0; SAVE SOLUTION 0; SAVE EQUILIBRIUM_PHASES 0; SAVE SURFACE 0; END; TRANSPORT; -shifts 1; END   
USE SOLUTION 0; USE EQUILIBRIUM_PHASES 0; USE REACTION 0; USE MIX 0; USE SURFACE 0; SAVE SOLUTION 0; SAVE EQUILIBRIUM_PHASES 0; SAVE SURFACE 0; END; TRANSPORT; -shifts 1; END   
USE SOLUTION 0; USE EQUILIBRIUM_PHASES 0; USE REACTION 0; USE MIX 0; USE SURFACE 0; SAVE SOLUTION 0; SAVE EQUILIBRIUM_PHASES 0; SAVE SURFACE 0; END; TRANSPORT; -shifts 1; END   
USE SOLUTION 0; USE EQUILIBRIUM_PHASES 0; USE REACTION 0; USE MIX 0; USE SURFACE 0; SAVE SOLUTION 0; SAVE EQUILIBRIUM_PHASES 0; SAVE SURFACE 0; END; TRANSPORT; -shifts 1; END   
USE SOLUTION 0; USE EQUILIBRIUM_PHASES 0; USE REACTION 0; USE MIX 0; USE SURFACE 0; SAVE SOLUTION 0; SAVE EQUILIBRIUM_PHASES 0; SAVE SURFACE 0; END; TRANSPORT; -shifts 1; END  #20 
USE SOLUTION 0; USE EQUILIBRIUM_PHASES 0; USE REACTION 0; USE MIX 0; USE SURFACE 0; SAVE SOLUTION 0; SAVE EQUILIBRIUM_PHASES 0; SAVE SURFACE 0; END; TRANSPORT; -shifts 1; END   
USE SOLUTION 0; USE EQUILIBRIUM_PHASES 0; USE REACTION 0; USE MIX 0; USE SURFACE 0; SAVE SOLUTION 0; SAVE EQUILIBRIUM_PHASES 0; SAVE SURFACE 0; END; TRANSPORT; -shifts 1; END   
USE SOLUTION 0; USE EQUILIBRIUM_PHASES 0; USE REACTION 0; USE MIX 0; USE SURFACE 0; SAVE SOLUTION 0; SAVE EQUILIBRIUM_PHASES 0; SAVE SURFACE 0; END; TRANSPORT; -shifts 1; END   
USE SOLUTION 0; USE EQUILIBRIUM_PHASES 0; USE REACTION 0; USE MIX 0; USE SURFACE 0; SAVE SOLUTION 0; SAVE EQUILIBRIUM_PHASES 0; SAVE SURFACE 0; END; TRANSPORT; -shifts 1; END   
USE SOLUTION 0; USE EQUILIBRIUM_PHASES 0; USE REACTION 0; USE MIX 0; USE SURFACE 0; SAVE SOLUTION 0; SAVE EQUILIBRIUM_PHASES 0; SAVE SURFACE 0; END; TRANSPORT; -shifts 1; END   
USE SOLUTION 0; USE EQUILIBRIUM_PHASES 0; USE REACTION 0; USE MIX 0; USE SURFACE 0; SAVE SOLUTION 0; SAVE EQUILIBRIUM_PHASES 0; SAVE SURFACE 0; END; TRANSPORT; -shifts 1; END   
USE SOLUTION 0; USE EQUILIBRIUM_PHASES 0; USE REACTION 0; USE MIX 0; USE SURFACE 0; SAVE SOLUTION 0; SAVE EQUILIBRIUM_PHASES 0; SAVE SURFACE 0; END; TRANSPORT; -shifts 1; END   
USE SOLUTION 0; USE EQUILIBRIUM_PHASES 0; USE REACTION 0; USE MIX 0; USE SURFACE 0; SAVE SOLUTION 0; SAVE EQUILIBRIUM_PHASES 0; SAVE SURFACE 0; END; TRANSPORT; -shifts 1; END   
USE SOLUTION 0; USE EQUILIBRIUM_PHASES 0; USE REACTION 0; USE MIX 0; USE SURFACE 0; SAVE SOLUTION 0; SAVE EQUILIBRIUM_PHASES 0; SAVE SURFACE 0; END; TRANSPORT; -shifts 1; END   
USE SOLUTION 0; USE EQUILIBRIUM_PHASES 0; USE REACTION 0; USE MIX 0; USE SURFACE 0; SAVE SOLUTION 0; SAVE EQUILIBRIUM_PHASES 0; SAVE SURFACE 0; END; TRANSPORT; -shifts 1; END  #30 
USE SOLUTION 0; USE EQUILIBRIUM_PHASES 0; USE REACTION 0; USE MIX 0; USE SURFACE 0; SAVE SOLUTION 0; SAVE EQUILIBRIUM_PHASES 0; SAVE SURFACE 0; END; TRANSPORT; -shifts 1; END   
USE SOLUTION 0; USE EQUILIBRIUM_PHASES 0; USE REACTION 0; USE MIX 0; USE SURFACE 0; SAVE SOLUTION 0; SAVE EQUILIBRIUM_PHASES 0; SAVE SURFACE 0; END; TRANSPORT; -shifts 1; END   
USE SOLUTION 0; USE EQUILIBRIUM_PHASES 0; USE REACTION 0; USE MIX 0; USE SURFACE 0; SAVE SOLUTION 0; SAVE EQUILIBRIUM_PHASES 0; SAVE SURFACE 0; END; TRANSPORT; -shifts 1; END   
USE SOLUTION 0; USE EQUILIBRIUM_PHASES 0; USE REACTION 0; USE MIX 0; USE SURFACE 0; SAVE SOLUTION 0; SAVE EQUILIBRIUM_PHASES 0; SAVE SURFACE 0; END; TRANSPORT; -shifts 1; END   
USE SOLUTION 0; USE EQUILIBRIUM_PHASES 0; USE REACTION 0; USE MIX 0; USE SURFACE 0; SAVE SOLUTION 0; SAVE EQUILIBRIUM_PHASES 0; SAVE SURFACE 0; END; TRANSPORT; -shifts 1; END   
USE SOLUTION 0; USE EQUILIBRIUM_PHASES 0; USE REACTION 0; USE MIX 0; USE SURFACE 0; SAVE SOLUTION 0; SAVE EQUILIBRIUM_PHASES 0; SAVE SURFACE 0; END; TRANSPORT; -shifts 1; END   
USE SOLUTION 0; USE EQUILIBRIUM_PHASES 0; USE REACTION 0; USE MIX 0; USE SURFACE 0; SAVE SOLUTION 0; SAVE EQUILIBRIUM_PHASES 0; SAVE SURFACE 0; END; TRANSPORT; -shifts 1; END   
USE SOLUTION 0; USE EQUILIBRIUM_PHASES 0; USE REACTION 0; USE MIX 0; USE SURFACE 0; SAVE SOLUTION 0; SAVE EQUILIBRIUM_PHASES 0; SAVE SURFACE 0; END; TRANSPORT; -shifts 1; END   
USE SOLUTION 0; USE EQUILIBRIUM_PHASES 0; USE REACTION 0; USE MIX 0; USE SURFACE 0; SAVE SOLUTION 0; SAVE EQUILIBRIUM_PHASES 0; SAVE SURFACE 0; END; TRANSPORT; -shifts 1; END   
USE SOLUTION 0; USE EQUILIBRIUM_PHASES 0; USE REACTION 0; USE MIX 0; USE SURFACE 0; SAVE SOLUTION 0; SAVE EQUILIBRIUM_PHASES 0; SAVE SURFACE 0; END; TRANSPORT; -shifts 1; END  #40 
USE SOLUTION 0; USE EQUILIBRIUM_PHASES 0; USE REACTION 0; USE MIX 0; USE SURFACE 0; SAVE SOLUTION 0; SAVE EQUILIBRIUM_PHASES 0; SAVE SURFACE 0; END; TRANSPORT; -shifts 1; END   
USE SOLUTION 0; USE EQUILIBRIUM_PHASES 0; USE REACTION 0; USE MIX 0; USE SURFACE 0; SAVE SOLUTION 0; SAVE EQUILIBRIUM_PHASES 0; SAVE SURFACE 0; END; TRANSPORT; -shifts 1; END   
USE SOLUTION 0; USE EQUILIBRIUM_PHASES 0; USE REACTION 0; USE MIX 0; USE SURFACE 0; SAVE SOLUTION 0; SAVE EQUILIBRIUM_PHASES 0; SAVE SURFACE 0; END; TRANSPORT; -shifts 1; END   
USE SOLUTION 0; USE EQUILIBRIUM_PHASES 0; USE REACTION 0; USE MIX 0; USE SURFACE 0; SAVE SOLUTION 0; SAVE EQUILIBRIUM_PHASES 0; SAVE SURFACE 0; END; TRANSPORT; -shifts 1; END   