END
SOLUTION 23
	units  mol/kgw
	temp   25.0
	pH      5.94943
	pe     13.93406
	water   0.99995
	Al       3.79160e-07
	Br       6.04671e-08
	C(4)     3.83885e-02
	Ca       3.20798e-03
	Co       8.27117e-06
	K        4.46856e-02
	Mg       1.58746e-03
	Mn(2)    5.14283e-04
	Mn(3)    2.71312e-15
	N(0)     2.19699e-07
	N(3)     1.93596e-13
	N(5)     3.03712e-02
	Na       5.04705e-02
	Ni       9.97460e-05
	O(0)     5.49151e-07
	S(6)     3.08031e-02
	Si       1.23006e-03
	U        1.27598e-06
EQUILIBRIUM_PHASES 23
	Al(OH)3(a)        0.000000e+00   0.000000e+00
	b-UO2(OH)2(s)     0.000000e+00   0.000000e+00
	Basaluminite      0.000000e+00  -2.997254e+00
	CaCO3H2Os         0.000000e+00   0.000000e+00
	CaMg(CO3)2s       0.000000e+00   0.000000e+00
	CaUO4s            0.000000e+00   0.000000e+00
	Co(OH)2s          0.000000e+00   0.000000e+00
	CoCO3s            0.000000e+00   0.000000e+00
	Gypsum            0.000000e+00   0.000000e+00
	Liebigite         0.000000e+00   9.608797e-04
	Mg(OH)2s          0.000000e+00   0.000000e+00
	MgCO3s            0.000000e+00   0.000000e+00
	MnCO3s            0.000000e+00   4.446436e-06
	Na-weeksite       0.000000e+00   0.000000e+00
	Ni(OH)2s          0.000000e+00   0.000000e+00
	NiCO3s            0.000000e+00   0.000000e+00
	Portlandite       0.000000e+00   0.000000e+00
	Pyrochroite       0.000000e+00   0.000000e+00
	Rutherfordine     0.000000e+00   0.000000e+00
	Schoepite         0.000000e+00   0.000000e+00
	SiO2(a)           0.000000e+00   0.000000e+00
	Soddyite          0.000000e+00   0.000000e+00
	UO2SO4(H2O)2.5s   0.000000e+00   0.000000e+00
	UO2SO4(H2O)3.5s   0.000000e+00   0.000000e+00
	UO2SO4(H2O)3s     0.000000e+00   0.000000e+00
	Uranophane        0.000000e+00   0.000000e+00
EXCHANGE 23
	Al                1.651039e-05
	Ca                7.134197e-03
	Co                2.402121e-06
	H                 2.408824e-07
	K                 7.777504e-02
	Mg                2.058609e-03
	Mn                4.986595e-04
	N                 5.860983e-54
	Na                1.771267e-02
	Ni                3.760218e-05
	O                 2.408824e-07
	X                 1.149999e-01
	-equil  23
SURFACE 23
	Hfo_s        	  7.00002e-04   6.00000e+02   1.28500e+01
	Hfo_w        	  2.89000e-02   6.00000e+02   1.28500e+01
	Hgo_w        	  1.20000e-02   3.20000e+01   4.69000e+00
	-equil  23
END
