DATABASE ../phreeqc-ph.dat
TITLE Luo 2009 large column 
EXCHANGE_SPECIES
	Al+3 + 3X- = AlX3
	log_k	3.00
	-gamma	9.0	0.0

PRINT 
        -reset false

SELECTED_OUTPUT
        -reset false
	-file lcb2.txt
	-time true
        -distance true
	-ph true
	-totals Al S(6) Ca Mg Mn Co Ni U Si N(5) C(4) Na K Br
END

SOLUTION 0
	pH       3.83
	N(5)	30.37
	S(6)	31.85
	Al	 6.41
	Ca	 5.37
	Mg	 2.05
	Si	 1.23
	Mn	 0.68
	Ni	 0.16
	U	 0.12
	Co	 0.010
	Na      44.80 charge
	K        4.348
	C(4)      1.0 CO2(g) -0.125
EQUILIBRIUM_PHASES 0
#	Al(OH)3(a) 0.0 0.0        #1
#	Basaluminite 0.0 0.0      #2
#	#Alunite 0.0 0.0          #3
#	#Gibbsite 0.0 0.0         #4
#	#Jurbanite 0.0 0.0        #5
#	#MGibbsite 0.0 0.0        #7
#	#Kaolinite 0.0 0.0        #6
#	SiO2(a) 0.0 0.0           #8
#	CaMg(CO3)2s 0.0 0.0       #9
#	CaCO3H2Os 0.0 0.0         #10
#	#Ca0.85Mg0.15CO3s 0.0 0.0  #11
#	Portlandite 0.0 0.0       #12 Ca(OH)2
#	Gypsum 0.0 0.0            #13 CaSO4.2H2O
#	MgCO3s 0.0 0.0            #14 MgCO3
#	Mg(OH)2s 0.0 0.0          #15 Mg(OH)2
#	MnCO3s 0.0 0.0            #16 synthetic rhodocrosite
#	Pyrochroite 0.0 0.0       #17 Mn(OH)2
#	#FeCo0.1(OH)3.2s 0.0 0.0   #18
#	Fe(OH)3(a) 0.0 0.0       #19
#	Ni(OH)2s 0.0 0.0          #20
#	NiCO3s 0.0 0.0            #21
#	Co(OH)2s 0.0 0.0          #22
#	CoCO3s 0.0 0.0            #23
#	Rutherfordine 0.0 0.0     #24
#	CaUO4s 0.0 0.0            #25
#	Schoepite 0.0 0.0        #26
#	b-UO2(OH)2(s) 0.0 0.0     #27
#	Soddyite 0.0 0.0          #28
#	Uranophane 0.0 0.0        #29
#	Na-weeksite 0.0 0.0       #30
#	Liebigite 0.0 0.0
#	UO2SO4(H2O)2.5s 0.0 0.0   #31
#	UO2SO4(H2O)3s 0.0 0.0     #32
#	UO2SO4(H2O)3.5s 0.0 0.0   #33
#	#Strontianite 0.0 0.0     #34
#	#Celestite 0.0 0.0        #35
	CO2(g) -0.125
SURFACE 0
#	Hbo_w Basaluminite equilibrium_phase 0.2 2496.0 
#	-equilibrate 0 
SOLUTION 1-34
	pH       3.83
	N(5)	30.37
	S(6)	31.85
	Al	 6.41
	Ca	 5.37
	Mg	 2.05
	Si	 1.23
	Mn	 0.68
	Ni	 0.16
	U	 0.12
	Co	 0.010
	Na      44.80 charge
	K        4.348
	C(4)      1.0 CO2(g) -0.125
EQUILIBRIUM_PHASES 1-34
	Al(OH)3(a) 0.0 0.0        #1
	Basaluminite 0.0 0.0      #2
	#Alunite 0.0 0.0          #3
	#Gibbsite 0.0 0.0         #4
	#Jurbanite 0.0 0.0        #5
	#MGibbsite 0.0 0.0        #7
	#Kaolinite 0.0 0.0        #6
	SiO2(a) 0.0 0.0           #8
	CaMg(CO3)2s 0.0 0.0       #9
	CaCO3H2Os 0.0 0.0         #10
	#Ca0.85Mg0.15CO3s 0.0 0.0  #11
	Portlandite 0.0 0.0       #12 Ca(OH)2
	Gypsum 0.0 0.0            #13 CaSO4.2H2O
	MgCO3s 0.0 0.0            #14 MgCO3
	Mg(OH)2s 0.0 0.0          #15 Mg(OH)2
	MnCO3s 0.0 0.0            #16 synthetic rhodocrosite
	Pyrochroite 0.0 0.0       #17 Mn(OH)2
	#FeCo0.1(OH)3.2s 0.0 0.0   #18
#	Fe(OH)3(a) 0.0 0.0       #19
	Ni(OH)2s 0.0 0.0          #20
	NiCO3s 0.0 0.0            #21
	Co(OH)2s 0.0 0.0          #22
	CoCO3s 0.0 0.0            #23
	Rutherfordine 0.0 0.0     #24
	CaUO4s 0.0 0.0            #25
	Schoepite 0.0 0.0        #26
	b-UO2(OH)2(s) 0.0 0.0     #27
	Soddyite 0.0 0.0          #28
	Uranophane 0.0 0.0        #29
	Na-weeksite 0.0 0.0       #30
	Liebigite 0.0 0.0
	UO2SO4(H2O)2.5s 0.0 0.0   #31
	UO2SO4(H2O)3s 0.0 0.0     #32
	UO2SO4(H2O)3.5s 0.0 0.0   #33
	#Strontianite 0.0 0.0     #34
	#Celestite 0.0 0.0        #35

SURFACE 1-34
	Hfo_w 0.0289 600 12.85
	Hfo_s 0.0007
	Hgo_w 0.0120 32.0  4.69
#	Hbo_w Basaluminite equilibrium_phase 0.2 2496.0 
	-equilibrate 1
EXCHANGE 1-34
	X 0.115
	-equilibrate 1
END

TRANSPORT
	-cells 34
	-lengths 0.01
	-dispersivities 0.01
	-shifts 1
	-flow_direction forward
	-time_step 413.13 
	-boundary_condition flux flux
        -punch_cells 1 34
        -punch_frequency 100
END

USE SOLUTION 0
USE EQUILIBRIUM_PHASES 0 
USE SURFACE 0
REACTION 0 
	KOH 0.86; K2CO3 0.07; KBr 1.0e-6; 
	1.63e-5 
MIX 0
	 0 0.989485 
	34 0.010515
SAVE SOLUTION 0 
SAVE EQUILIBRIUM_PHASES 0
SAVE SURFACE 0 
END 

TRANSPORT
	 -shifts 1
END   

USE SOLUTION 0; USE EQUILIBRIUM_PHASES 0; USE SURFACE 0; USE REACTION 0; USE MIX 0; SAVE SOLUTION 0; SAVE EQUILIBRIUM_PHASES 0; SAVE SURFACE 0; END; TRANSPORT; -shifts 1; END   
USE SOLUTION 0; USE EQUILIBRIUM_PHASES 0; USE SURFACE 0; USE REACTION 0; USE MIX 0; SAVE SOLUTION 0; SAVE EQUILIBRIUM_PHASES 0; SAVE SURFACE 0; END; TRANSPORT; -shifts 1; END   
USE SOLUTION 0; USE EQUILIBRIUM_PHASES 0; USE SURFACE 0; USE REACTION 0; USE MIX 0; SAVE SOLUTION 0; SAVE EQUILIBRIUM_PHASES 0; SAVE SURFACE 0; END; TRANSPORT; -shifts 1; END   
USE SOLUTION 0; USE EQUILIBRIUM_PHASES 0; USE SURFACE 0; USE REACTION 0; USE MIX 0; SAVE SOLUTION 0; SAVE EQUILIBRIUM_PHASES 0; SAVE SURFACE 0; END; TRANSPORT; -shifts 1; END   
USE SOLUTION 0; USE EQUILIBRIUM_PHASES 0; USE SURFACE 0; USE REACTION 0; USE MIX 0; SAVE SOLUTION 0; SAVE EQUILIBRIUM_PHASES 0; SAVE SURFACE 0; END; TRANSPORT; -shifts 1; END   
USE SOLUTION 0; USE EQUILIBRIUM_PHASES 0; USE SURFACE 0; USE REACTION 0; USE MIX 0; SAVE SOLUTION 0; SAVE EQUILIBRIUM_PHASES 0; SAVE SURFACE 0; END; TRANSPORT; -shifts 1; END   
USE SOLUTION 0; USE EQUILIBRIUM_PHASES 0; USE SURFACE 0; USE REACTION 0; USE MIX 0; SAVE SOLUTION 0; SAVE EQUILIBRIUM_PHASES 0; SAVE SURFACE 0; END; TRANSPORT; -shifts 1; END   
USE SOLUTION 0; USE EQUILIBRIUM_PHASES 0; USE SURFACE 0; USE REACTION 0; USE MIX 0; SAVE SOLUTION 0; SAVE EQUILIBRIUM_PHASES 0; SAVE SURFACE 0; END; TRANSPORT; -shifts 1; END   
USE SOLUTION 0; USE EQUILIBRIUM_PHASES 0; USE SURFACE 0; USE REACTION 0; USE MIX 0; SAVE SOLUTION 0; SAVE EQUILIBRIUM_PHASES 0; SAVE SURFACE 0; END; TRANSPORT; -shifts 1; END   
USE SOLUTION 0; USE EQUILIBRIUM_PHASES 0; USE SURFACE 0; USE REACTION 0; USE MIX 0; SAVE SOLUTION 0; SAVE EQUILIBRIUM_PHASES 0; SAVE SURFACE 0; END; TRANSPORT; -shifts 1; END  #10 
USE SOLUTION 0; USE EQUILIBRIUM_PHASES 0; USE SURFACE 0; USE REACTION 0; USE MIX 0; SAVE SOLUTION 0; SAVE EQUILIBRIUM_PHASES 0; SAVE SURFACE 0; END; TRANSPORT; -shifts 1; END   
USE SOLUTION 0; USE EQUILIBRIUM_PHASES 0; USE SURFACE 0; USE REACTION 0; USE MIX 0; SAVE SOLUTION 0; SAVE EQUILIBRIUM_PHASES 0; SAVE SURFACE 0; END; TRANSPORT; -shifts 1; END   
USE SOLUTION 0; USE EQUILIBRIUM_PHASES 0; USE SURFACE 0; USE REACTION 0; USE MIX 0; SAVE SOLUTION 0; SAVE EQUILIBRIUM_PHASES 0; SAVE SURFACE 0; END; TRANSPORT; -shifts 1; END   
USE SOLUTION 0; USE EQUILIBRIUM_PHASES 0; USE SURFACE 0; USE REACTION 0; USE MIX 0; SAVE SOLUTION 0; SAVE EQUILIBRIUM_PHASES 0; SAVE SURFACE 0; END; TRANSPORT; -shifts 1; END   
USE SOLUTION 0; USE EQUILIBRIUM_PHASES 0; USE SURFACE 0; USE REACTION 0; USE MIX 0; SAVE SOLUTION 0; SAVE EQUILIBRIUM_PHASES 0; SAVE SURFACE 0; END; TRANSPORT; -shifts 1; END   
USE SOLUTION 0; USE EQUILIBRIUM_PHASES 0; USE SURFACE 0; USE REACTION 0; USE MIX 0; SAVE SOLUTION 0; SAVE EQUILIBRIUM_PHASES 0; SAVE SURFACE 0; END; TRANSPORT; -shifts 1; END   
USE SOLUTION 0; USE EQUILIBRIUM_PHASES 0; USE SURFACE 0; USE REACTION 0; USE MIX 0; SAVE SOLUTION 0; SAVE EQUILIBRIUM_PHASES 0; SAVE SURFACE 0; END; TRANSPORT; -shifts 1; END   
USE SOLUTION 0; USE EQUILIBRIUM_PHASES 0; USE SURFACE 0; USE REACTION 0; USE MIX 0; SAVE SOLUTION 0; SAVE EQUILIBRIUM_PHASES 0; SAVE SURFACE 0; END; TRANSPORT; -shifts 1; END   
USE SOLUTION 0; USE EQUILIBRIUM_PHASES 0; USE SURFACE 0; USE REACTION 0; USE MIX 0; SAVE SOLUTION 0; SAVE EQUILIBRIUM_PHASES 0; SAVE SURFACE 0; END; TRANSPORT; -shifts 1; END   
USE SOLUTION 0; USE EQUILIBRIUM_PHASES 0; USE SURFACE 0; USE REACTION 0; USE MIX 0; SAVE SOLUTION 0; SAVE EQUILIBRIUM_PHASES 0; SAVE SURFACE 0; END; TRANSPORT; -shifts 1; END  #20 
USE SOLUTION 0; USE EQUILIBRIUM_PHASES 0; USE SURFACE 0; USE REACTION 0; USE MIX 0; SAVE SOLUTION 0; SAVE EQUILIBRIUM_PHASES 0; SAVE SURFACE 0; END; TRANSPORT; -shifts 1; END   
USE SOLUTION 0; USE EQUILIBRIUM_PHASES 0; USE SURFACE 0; USE REACTION 0; USE MIX 0; SAVE SOLUTION 0; SAVE EQUILIBRIUM_PHASES 0; SAVE SURFACE 0; END; TRANSPORT; -shifts 1; END   
USE SOLUTION 0; USE EQUILIBRIUM_PHASES 0; USE SURFACE 0; USE REACTION 0; USE MIX 0; SAVE SOLUTION 0; SAVE EQUILIBRIUM_PHASES 0; SAVE SURFACE 0; END; TRANSPORT; -shifts 1; END   
USE SOLUTION 0; USE EQUILIBRIUM_PHASES 0; USE SURFACE 0; USE REACTION 0; USE MIX 0; SAVE SOLUTION 0; SAVE EQUILIBRIUM_PHASES 0; SAVE SURFACE 0; END; TRANSPORT; -shifts 1; END   
USE SOLUTION 0; USE EQUILIBRIUM_PHASES 0; USE SURFACE 0; USE REACTION 0; USE MIX 0; SAVE SOLUTION 0; SAVE EQUILIBRIUM_PHASES 0; SAVE SURFACE 0; END; TRANSPORT; -shifts 1; END   
USE SOLUTION 0; USE EQUILIBRIUM_PHASES 0; USE SURFACE 0; USE REACTION 0; USE MIX 0; SAVE SOLUTION 0; SAVE EQUILIBRIUM_PHASES 0; SAVE SURFACE 0; END; TRANSPORT; -shifts 1; END   
USE SOLUTION 0; USE EQUILIBRIUM_PHASES 0; USE SURFACE 0; USE REACTION 0; USE MIX 0; SAVE SOLUTION 0; SAVE EQUILIBRIUM_PHASES 0; SAVE SURFACE 0; END; TRANSPORT; -shifts 1; END   
USE SOLUTION 0; USE EQUILIBRIUM_PHASES 0; USE SURFACE 0; USE REACTION 0; USE MIX 0; SAVE SOLUTION 0; SAVE EQUILIBRIUM_PHASES 0; SAVE SURFACE 0; END; TRANSPORT; -shifts 1; END   
USE SOLUTION 0; USE EQUILIBRIUM_PHASES 0; USE SURFACE 0; USE REACTION 0; USE MIX 0; SAVE SOLUTION 0; SAVE EQUILIBRIUM_PHASES 0; SAVE SURFACE 0; END; TRANSPORT; -shifts 1; END   
USE SOLUTION 0; USE EQUILIBRIUM_PHASES 0; USE SURFACE 0; USE REACTION 0; USE MIX 0; SAVE SOLUTION 0; SAVE EQUILIBRIUM_PHASES 0; SAVE SURFACE 0; END; TRANSPORT; -shifts 1; END  #30 
USE SOLUTION 0; USE EQUILIBRIUM_PHASES 0; USE SURFACE 0; USE REACTION 0; USE MIX 0; SAVE SOLUTION 0; SAVE EQUILIBRIUM_PHASES 0; SAVE SURFACE 0; END; TRANSPORT; -shifts 1; END   
USE SOLUTION 0; USE EQUILIBRIUM_PHASES 0; USE SURFACE 0; USE REACTION 0; USE MIX 0; SAVE SOLUTION 0; SAVE EQUILIBRIUM_PHASES 0; SAVE SURFACE 0; END; TRANSPORT; -shifts 1; END   
USE SOLUTION 0; USE EQUILIBRIUM_PHASES 0; USE SURFACE 0; USE REACTION 0; USE MIX 0; SAVE SOLUTION 0; SAVE EQUILIBRIUM_PHASES 0; SAVE SURFACE 0; END; TRANSPORT; -shifts 1; END   
USE SOLUTION 0; USE EQUILIBRIUM_PHASES 0; USE SURFACE 0; USE REACTION 0; USE MIX 0; SAVE SOLUTION 0; SAVE EQUILIBRIUM_PHASES 0; SAVE SURFACE 0; END; TRANSPORT; -shifts 1; END   
USE SOLUTION 0; USE EQUILIBRIUM_PHASES 0; USE SURFACE 0; USE REACTION 0; USE MIX 0; SAVE SOLUTION 0; SAVE EQUILIBRIUM_PHASES 0; SAVE SURFACE 0; END; TRANSPORT; -shifts 1; END   
USE SOLUTION 0; USE EQUILIBRIUM_PHASES 0; USE SURFACE 0; USE REACTION 0; USE MIX 0; SAVE SOLUTION 0; SAVE EQUILIBRIUM_PHASES 0; SAVE SURFACE 0; END; TRANSPORT; -shifts 1; END   
USE SOLUTION 0; USE EQUILIBRIUM_PHASES 0; USE SURFACE 0; USE REACTION 0; USE MIX 0; SAVE SOLUTION 0; SAVE EQUILIBRIUM_PHASES 0; SAVE SURFACE 0; END; TRANSPORT; -shifts 1; END   
USE SOLUTION 0; USE EQUILIBRIUM_PHASES 0; USE SURFACE 0; USE REACTION 0; USE MIX 0; SAVE SOLUTION 0; SAVE EQUILIBRIUM_PHASES 0; SAVE SURFACE 0; END; TRANSPORT; -shifts 1; END   
USE SOLUTION 0; USE EQUILIBRIUM_PHASES 0; USE SURFACE 0; USE REACTION 0; USE MIX 0; SAVE SOLUTION 0; SAVE EQUILIBRIUM_PHASES 0; SAVE SURFACE 0; END; TRANSPORT; -shifts 1; END   
USE SOLUTION 0; USE EQUILIBRIUM_PHASES 0; USE SURFACE 0; USE REACTION 0; USE MIX 0; SAVE SOLUTION 0; SAVE EQUILIBRIUM_PHASES 0; SAVE SURFACE 0; END; TRANSPORT; -shifts 1; END  #40 
USE SOLUTION 0; USE EQUILIBRIUM_PHASES 0; USE SURFACE 0; USE REACTION 0; USE MIX 0; SAVE SOLUTION 0; SAVE EQUILIBRIUM_PHASES 0; SAVE SURFACE 0; END; TRANSPORT; -shifts 1; END   
USE SOLUTION 0; USE EQUILIBRIUM_PHASES 0; USE SURFACE 0; USE REACTION 0; USE MIX 0; SAVE SOLUTION 0; SAVE EQUILIBRIUM_PHASES 0; SAVE SURFACE 0; END; TRANSPORT; -shifts 1; END   
USE SOLUTION 0; USE EQUILIBRIUM_PHASES 0; USE SURFACE 0; USE REACTION 0; USE MIX 0; SAVE SOLUTION 0; SAVE EQUILIBRIUM_PHASES 0; SAVE SURFACE 0; END; TRANSPORT; -shifts 1; END   
USE SOLUTION 0; USE EQUILIBRIUM_PHASES 0; USE SURFACE 0; USE REACTION 0; USE MIX 0; SAVE SOLUTION 0; SAVE EQUILIBRIUM_PHASES 0; SAVE SURFACE 0; END; TRANSPORT; -shifts 1; END   
USE SOLUTION 0; USE EQUILIBRIUM_PHASES 0; USE SURFACE 0; USE REACTION 0; USE MIX 0; SAVE SOLUTION 0; SAVE EQUILIBRIUM_PHASES 0; SAVE SURFACE 0; END; TRANSPORT; -shifts 1; END   
USE SOLUTION 0; USE EQUILIBRIUM_PHASES 0; USE SURFACE 0; USE REACTION 0; USE MIX 0; SAVE SOLUTION 0; SAVE EQUILIBRIUM_PHASES 0; SAVE SURFACE 0; END; TRANSPORT; -shifts 1; END   
USE SOLUTION 0; USE EQUILIBRIUM_PHASES 0; USE SURFACE 0; USE REACTION 0; USE MIX 0; SAVE SOLUTION 0; SAVE EQUILIBRIUM_PHASES 0; SAVE SURFACE 0; END; TRANSPORT; -shifts 1; END   
USE SOLUTION 0; USE EQUILIBRIUM_PHASES 0; USE SURFACE 0; USE REACTION 0; USE MIX 0; SAVE SOLUTION 0; SAVE EQUILIBRIUM_PHASES 0; SAVE SURFACE 0; END; TRANSPORT; -shifts 1; END   
USE SOLUTION 0; USE EQUILIBRIUM_PHASES 0; USE SURFACE 0; USE REACTION 0; USE MIX 0; SAVE SOLUTION 0; SAVE EQUILIBRIUM_PHASES 0; SAVE SURFACE 0; END; TRANSPORT; -shifts 1; END   
USE SOLUTION 0; USE EQUILIBRIUM_PHASES 0; USE SURFACE 0; USE REACTION 0; USE MIX 0; SAVE SOLUTION 0; SAVE EQUILIBRIUM_PHASES 0; SAVE SURFACE 0; END; TRANSPORT; -shifts 1; END  #50 
USE SOLUTION 0; USE EQUILIBRIUM_PHASES 0; USE SURFACE 0; USE REACTION 0; USE MIX 0; SAVE SOLUTION 0; SAVE EQUILIBRIUM_PHASES 0; SAVE SURFACE 0; END; TRANSPORT; -shifts 1; END   
USE SOLUTION 0; USE EQUILIBRIUM_PHASES 0; USE SURFACE 0; USE REACTION 0; USE MIX 0; SAVE SOLUTION 0; SAVE EQUILIBRIUM_PHASES 0; SAVE SURFACE 0; END; TRANSPORT; -shifts 1; END   
USE SOLUTION 0; USE EQUILIBRIUM_PHASES 0; USE SURFACE 0; USE REACTION 0; USE MIX 0; SAVE SOLUTION 0; SAVE EQUILIBRIUM_PHASES 0; SAVE SURFACE 0; END; TRANSPORT; -shifts 1; END   
USE SOLUTION 0; USE EQUILIBRIUM_PHASES 0; USE SURFACE 0; USE REACTION 0; USE MIX 0; SAVE SOLUTION 0; SAVE EQUILIBRIUM_PHASES 0; SAVE SURFACE 0; END; TRANSPORT; -shifts 1; END   
USE SOLUTION 0; USE EQUILIBRIUM_PHASES 0; USE SURFACE 0; USE REACTION 0; USE MIX 0; SAVE SOLUTION 0; SAVE EQUILIBRIUM_PHASES 0; SAVE SURFACE 0; END; TRANSPORT; -shifts 1; END   
USE SOLUTION 0; USE EQUILIBRIUM_PHASES 0; USE SURFACE 0; USE REACTION 0; USE MIX 0; SAVE SOLUTION 0; SAVE EQUILIBRIUM_PHASES 0; SAVE SURFACE 0; END; TRANSPORT; -shifts 1; END   
USE SOLUTION 0; USE EQUILIBRIUM_PHASES 0; USE SURFACE 0; USE REACTION 0; USE MIX 0; SAVE SOLUTION 0; SAVE EQUILIBRIUM_PHASES 0; SAVE SURFACE 0; END; TRANSPORT; -shifts 1; END   
USE SOLUTION 0; USE EQUILIBRIUM_PHASES 0; USE SURFACE 0; USE REACTION 0; USE MIX 0; SAVE SOLUTION 0; SAVE EQUILIBRIUM_PHASES 0; SAVE SURFACE 0; END; TRANSPORT; -shifts 1; END   
USE SOLUTION 0; USE EQUILIBRIUM_PHASES 0; USE SURFACE 0; USE REACTION 0; USE MIX 0; SAVE SOLUTION 0; SAVE EQUILIBRIUM_PHASES 0; SAVE SURFACE 0; END; TRANSPORT; -shifts 1; END   
USE SOLUTION 0; USE EQUILIBRIUM_PHASES 0; USE SURFACE 0; USE REACTION 0; USE MIX 0; SAVE SOLUTION 0; SAVE EQUILIBRIUM_PHASES 0; SAVE SURFACE 0; END; TRANSPORT; -shifts 1; END  #60 
USE SOLUTION 0; USE EQUILIBRIUM_PHASES 0; USE SURFACE 0; USE REACTION 0; USE MIX 0; SAVE SOLUTION 0; SAVE EQUILIBRIUM_PHASES 0; SAVE SURFACE 0; END; TRANSPORT; -shifts 1; END   
USE SOLUTION 0; USE EQUILIBRIUM_PHASES 0; USE SURFACE 0; USE REACTION 0; USE MIX 0; SAVE SOLUTION 0; SAVE EQUILIBRIUM_PHASES 0; SAVE SURFACE 0; END; TRANSPORT; -shifts 1; END   
USE SOLUTION 0; USE EQUILIBRIUM_PHASES 0; USE SURFACE 0; USE REACTION 0; USE MIX 0; SAVE SOLUTION 0; SAVE EQUILIBRIUM_PHASES 0; SAVE SURFACE 0; END; TRANSPORT; -shifts 1; END   
USE SOLUTION 0; USE EQUILIBRIUM_PHASES 0; USE SURFACE 0; USE REACTION 0; USE MIX 0; SAVE SOLUTION 0; SAVE EQUILIBRIUM_PHASES 0; SAVE SURFACE 0; END; TRANSPORT; -shifts 1; END   
USE SOLUTION 0; USE EQUILIBRIUM_PHASES 0; USE SURFACE 0; USE REACTION 0; USE MIX 0; SAVE SOLUTION 0; SAVE EQUILIBRIUM_PHASES 0; SAVE SURFACE 0; END; TRANSPORT; -shifts 1; END   
USE SOLUTION 0; USE EQUILIBRIUM_PHASES 0; USE SURFACE 0; USE REACTION 0; USE MIX 0; SAVE SOLUTION 0; SAVE EQUILIBRIUM_PHASES 0; SAVE SURFACE 0; END; TRANSPORT; -shifts 1; END   
USE SOLUTION 0; USE EQUILIBRIUM_PHASES 0; USE SURFACE 0; USE REACTION 0; USE MIX 0; SAVE SOLUTION 0; SAVE EQUILIBRIUM_PHASES 0; SAVE SURFACE 0; END; TRANSPORT; -shifts 1; END   
USE SOLUTION 0; USE EQUILIBRIUM_PHASES 0; USE SURFACE 0; USE REACTION 0; USE MIX 0; SAVE SOLUTION 0; SAVE EQUILIBRIUM_PHASES 0; SAVE SURFACE 0; END; TRANSPORT; -shifts 1; END   
USE SOLUTION 0; USE EQUILIBRIUM_PHASES 0; USE SURFACE 0; USE REACTION 0; USE MIX 0; SAVE SOLUTION 0; SAVE EQUILIBRIUM_PHASES 0; SAVE SURFACE 0; END; TRANSPORT; -shifts 1; END   
USE SOLUTION 0; USE EQUILIBRIUM_PHASES 0; USE SURFACE 0; USE REACTION 0; USE MIX 0; SAVE SOLUTION 0; SAVE EQUILIBRIUM_PHASES 0; SAVE SURFACE 0; END; TRANSPORT; -shifts 1; END  #70 
USE SOLUTION 0; USE EQUILIBRIUM_PHASES 0; USE SURFACE 0; USE REACTION 0; USE MIX 0; SAVE SOLUTION 0; SAVE EQUILIBRIUM_PHASES 0; SAVE SURFACE 0; END; TRANSPORT; -shifts 1; END   
USE SOLUTION 0; USE EQUILIBRIUM_PHASES 0; USE SURFACE 0; USE REACTION 0; USE MIX 0; SAVE SOLUTION 0; SAVE EQUILIBRIUM_PHASES 0; SAVE SURFACE 0; END; TRANSPORT; -shifts 1; END   
USE SOLUTION 0; USE EQUILIBRIUM_PHASES 0; USE SURFACE 0; USE REACTION 0; USE MIX 0; SAVE SOLUTION 0; SAVE EQUILIBRIUM_PHASES 0; SAVE SURFACE 0; END; TRANSPORT; -shifts 1; END   
USE SOLUTION 0; USE EQUILIBRIUM_PHASES 0; USE SURFACE 0; USE REACTION 0; USE MIX 0; SAVE SOLUTION 0; SAVE EQUILIBRIUM_PHASES 0; SAVE SURFACE 0; END; TRANSPORT; -shifts 1; END   
USE SOLUTION 0; USE EQUILIBRIUM_PHASES 0; USE SURFACE 0; USE REACTION 0; USE MIX 0; SAVE SOLUTION 0; SAVE EQUILIBRIUM_PHASES 0; SAVE SURFACE 0; END; TRANSPORT; -shifts 1; END   
USE SOLUTION 0; USE EQUILIBRIUM_PHASES 0; USE SURFACE 0; USE REACTION 0; USE MIX 0; SAVE SOLUTION 0; SAVE EQUILIBRIUM_PHASES 0; SAVE SURFACE 0; END; TRANSPORT; -shifts 1; END   
USE SOLUTION 0; USE EQUILIBRIUM_PHASES 0; USE SURFACE 0; USE REACTION 0; USE MIX 0; SAVE SOLUTION 0; SAVE EQUILIBRIUM_PHASES 0; SAVE SURFACE 0; END; TRANSPORT; -shifts 1; END   
USE SOLUTION 0; USE EQUILIBRIUM_PHASES 0; USE SURFACE 0; USE REACTION 0; USE MIX 0; SAVE SOLUTION 0; SAVE EQUILIBRIUM_PHASES 0; SAVE SURFACE 0; END; TRANSPORT; -shifts 1; END   
USE SOLUTION 0; USE EQUILIBRIUM_PHASES 0; USE SURFACE 0; USE REACTION 0; USE MIX 0; SAVE SOLUTION 0; SAVE EQUILIBRIUM_PHASES 0; SAVE SURFACE 0; END; TRANSPORT; -shifts 1; END   
USE SOLUTION 0; USE EQUILIBRIUM_PHASES 0; USE SURFACE 0; USE REACTION 0; USE MIX 0; SAVE SOLUTION 0; SAVE EQUILIBRIUM_PHASES 0; SAVE SURFACE 0; END; TRANSPORT; -shifts 1; END  #80 
USE SOLUTION 0; USE EQUILIBRIUM_PHASES 0; USE SURFACE 0; USE REACTION 0; USE MIX 0; SAVE SOLUTION 0; SAVE EQUILIBRIUM_PHASES 0; SAVE SURFACE 0; END; TRANSPORT; -shifts 1; END   
USE SOLUTION 0; USE EQUILIBRIUM_PHASES 0; USE SURFACE 0; USE REACTION 0; USE MIX 0; SAVE SOLUTION 0; SAVE EQUILIBRIUM_PHASES 0; SAVE SURFACE 0; END; TRANSPORT; -shifts 1; END   
USE SOLUTION 0; USE EQUILIBRIUM_PHASES 0; USE SURFACE 0; USE REACTION 0; USE MIX 0; SAVE SOLUTION 0; SAVE EQUILIBRIUM_PHASES 0; SAVE SURFACE 0; END; TRANSPORT; -shifts 1; END   
USE SOLUTION 0; USE EQUILIBRIUM_PHASES 0; USE SURFACE 0; USE REACTION 0; USE MIX 0; SAVE SOLUTION 0; SAVE EQUILIBRIUM_PHASES 0; SAVE SURFACE 0; END; TRANSPORT; -shifts 1; END   
USE SOLUTION 0; USE EQUILIBRIUM_PHASES 0; USE SURFACE 0; USE REACTION 0; USE MIX 0; SAVE SOLUTION 0; SAVE EQUILIBRIUM_PHASES 0; SAVE SURFACE 0; END; TRANSPORT; -shifts 1; END   
USE SOLUTION 0; USE EQUILIBRIUM_PHASES 0; USE SURFACE 0; USE REACTION 0; USE MIX 0; SAVE SOLUTION 0; SAVE EQUILIBRIUM_PHASES 0; SAVE SURFACE 0; END; TRANSPORT; -shifts 1; END   
USE SOLUTION 0; USE EQUILIBRIUM_PHASES 0; USE SURFACE 0; USE REACTION 0; USE MIX 0; SAVE SOLUTION 0; SAVE EQUILIBRIUM_PHASES 0; SAVE SURFACE 0; END; TRANSPORT; -shifts 1; END   
USE SOLUTION 0; USE EQUILIBRIUM_PHASES 0; USE SURFACE 0; USE REACTION 0; USE MIX 0; SAVE SOLUTION 0; SAVE EQUILIBRIUM_PHASES 0; SAVE SURFACE 0; END; TRANSPORT; -shifts 1; END   
USE SOLUTION 0; USE EQUILIBRIUM_PHASES 0; USE SURFACE 0; USE REACTION 0; USE MIX 0; SAVE SOLUTION 0; SAVE EQUILIBRIUM_PHASES 0; SAVE SURFACE 0; END; TRANSPORT; -shifts 1; END   
USE SOLUTION 0; USE EQUILIBRIUM_PHASES 0; USE SURFACE 0; USE REACTION 0; USE MIX 0; SAVE SOLUTION 0; SAVE EQUILIBRIUM_PHASES 0; SAVE SURFACE 0; END; TRANSPORT; -shifts 1; END  #90 
USE SOLUTION 0; USE EQUILIBRIUM_PHASES 0; USE SURFACE 0; USE REACTION 0; USE MIX 0; SAVE SOLUTION 0; SAVE EQUILIBRIUM_PHASES 0; SAVE SURFACE 0; END; TRANSPORT; -shifts 1; END   
USE SOLUTION 0; USE EQUILIBRIUM_PHASES 0; USE SURFACE 0; USE REACTION 0; USE MIX 0; SAVE SOLUTION 0; SAVE EQUILIBRIUM_PHASES 0; SAVE SURFACE 0; END; TRANSPORT; -shifts 1; END   
USE SOLUTION 0; USE EQUILIBRIUM_PHASES 0; USE SURFACE 0; USE REACTION 0; USE MIX 0; SAVE SOLUTION 0; SAVE EQUILIBRIUM_PHASES 0; SAVE SURFACE 0; END; TRANSPORT; -shifts 1; END   
USE SOLUTION 0; USE EQUILIBRIUM_PHASES 0; USE SURFACE 0; USE REACTION 0; USE MIX 0; SAVE SOLUTION 0; SAVE EQUILIBRIUM_PHASES 0; SAVE SURFACE 0; END; TRANSPORT; -shifts 1; END   
USE SOLUTION 0; USE EQUILIBRIUM_PHASES 0; USE SURFACE 0; USE REACTION 0; USE MIX 0; SAVE SOLUTION 0; SAVE EQUILIBRIUM_PHASES 0; SAVE SURFACE 0; END; TRANSPORT; -shifts 1; END   
USE SOLUTION 0; USE EQUILIBRIUM_PHASES 0; USE SURFACE 0; USE REACTION 0; USE MIX 0; SAVE SOLUTION 0; SAVE EQUILIBRIUM_PHASES 0; SAVE SURFACE 0; END; TRANSPORT; -shifts 1; END   
USE SOLUTION 0; USE EQUILIBRIUM_PHASES 0; USE SURFACE 0; USE REACTION 0; USE MIX 0; SAVE SOLUTION 0; SAVE EQUILIBRIUM_PHASES 0; SAVE SURFACE 0; END; TRANSPORT; -shifts 1; END   
USE SOLUTION 0; USE EQUILIBRIUM_PHASES 0; USE SURFACE 0; USE REACTION 0; USE MIX 0; SAVE SOLUTION 0; SAVE EQUILIBRIUM_PHASES 0; SAVE SURFACE 0; END; TRANSPORT; -shifts 1; END   
USE SOLUTION 0; USE EQUILIBRIUM_PHASES 0; USE SURFACE 0; USE REACTION 0; USE MIX 0; SAVE SOLUTION 0; SAVE EQUILIBRIUM_PHASES 0; SAVE SURFACE 0; END; TRANSPORT; -shifts 1; END   
USE SOLUTION 0; USE EQUILIBRIUM_PHASES 0; USE SURFACE 0; USE REACTION 0; USE MIX 0; SAVE SOLUTION 0; SAVE EQUILIBRIUM_PHASES 0; SAVE SURFACE 0; END; TRANSPORT; -shifts 1; END  #100 
USE SOLUTION 0; USE EQUILIBRIUM_PHASES 0; USE SURFACE 0; USE REACTION 0; USE MIX 0; SAVE SOLUTION 0; SAVE EQUILIBRIUM_PHASES 0; SAVE SURFACE 0; END; TRANSPORT; -shifts 1; END   
USE SOLUTION 0; USE EQUILIBRIUM_PHASES 0; USE SURFACE 0; USE REACTION 0; USE MIX 0; SAVE SOLUTION 0; SAVE EQUILIBRIUM_PHASES 0; SAVE SURFACE 0; END; TRANSPORT; -shifts 1; END   
USE SOLUTION 0; USE EQUILIBRIUM_PHASES 0; USE SURFACE 0; USE REACTION 0; USE MIX 0; SAVE SOLUTION 0; SAVE EQUILIBRIUM_PHASES 0; SAVE SURFACE 0; END; TRANSPORT; -shifts 1; END   
USE SOLUTION 0; USE EQUILIBRIUM_PHASES 0; USE SURFACE 0; USE REACTION 0; USE MIX 0; SAVE SOLUTION 0; SAVE EQUILIBRIUM_PHASES 0; SAVE SURFACE 0; END; TRANSPORT; -shifts 1; END   
USE SOLUTION 0; USE EQUILIBRIUM_PHASES 0; USE SURFACE 0; USE REACTION 0; USE MIX 0; SAVE SOLUTION 0; SAVE EQUILIBRIUM_PHASES 0; SAVE SURFACE 0; END; TRANSPORT; -shifts 1; END   
USE SOLUTION 0; USE EQUILIBRIUM_PHASES 0; USE SURFACE 0; USE REACTION 0; USE MIX 0; SAVE SOLUTION 0; SAVE EQUILIBRIUM_PHASES 0; SAVE SURFACE 0; END; TRANSPORT; -shifts 1; END   
USE SOLUTION 0; USE EQUILIBRIUM_PHASES 0; USE SURFACE 0; USE REACTION 0; USE MIX 0; SAVE SOLUTION 0; SAVE EQUILIBRIUM_PHASES 0; SAVE SURFACE 0; END; TRANSPORT; -shifts 1; END   
USE SOLUTION 0; USE EQUILIBRIUM_PHASES 0; USE SURFACE 0; USE REACTION 0; USE MIX 0; SAVE SOLUTION 0; SAVE EQUILIBRIUM_PHASES 0; SAVE SURFACE 0; END; TRANSPORT; -shifts 1; END   
USE SOLUTION 0; USE EQUILIBRIUM_PHASES 0; USE SURFACE 0; USE REACTION 0; USE MIX 0; SAVE SOLUTION 0; SAVE EQUILIBRIUM_PHASES 0; SAVE SURFACE 0; END; TRANSPORT; -shifts 1; END   
USE SOLUTION 0; USE EQUILIBRIUM_PHASES 0; USE SURFACE 0; USE REACTION 0; USE MIX 0; SAVE SOLUTION 0; SAVE EQUILIBRIUM_PHASES 0; SAVE SURFACE 0; END; TRANSPORT; -shifts 1; END  #10 
USE SOLUTION 0; USE EQUILIBRIUM_PHASES 0; USE SURFACE 0; USE REACTION 0; USE MIX 0; SAVE SOLUTION 0; SAVE EQUILIBRIUM_PHASES 0; SAVE SURFACE 0; END; TRANSPORT; -shifts 1; END   
USE SOLUTION 0; USE EQUILIBRIUM_PHASES 0; USE SURFACE 0; USE REACTION 0; USE MIX 0; SAVE SOLUTION 0; SAVE EQUILIBRIUM_PHASES 0; SAVE SURFACE 0; END; TRANSPORT; -shifts 1; END   
USE SOLUTION 0; USE EQUILIBRIUM_PHASES 0; USE SURFACE 0; USE REACTION 0; USE MIX 0; SAVE SOLUTION 0; SAVE EQUILIBRIUM_PHASES 0; SAVE SURFACE 0; END; TRANSPORT; -shifts 1; END   
USE SOLUTION 0; USE EQUILIBRIUM_PHASES 0; USE SURFACE 0; USE REACTION 0; USE MIX 0; SAVE SOLUTION 0; SAVE EQUILIBRIUM_PHASES 0; SAVE SURFACE 0; END; TRANSPORT; -shifts 1; END   
USE SOLUTION 0; USE EQUILIBRIUM_PHASES 0; USE SURFACE 0; USE REACTION 0; USE MIX 0; SAVE SOLUTION 0; SAVE EQUILIBRIUM_PHASES 0; SAVE SURFACE 0; END; TRANSPORT; -shifts 1; END   
USE SOLUTION 0; USE EQUILIBRIUM_PHASES 0; USE SURFACE 0; USE REACTION 0; USE MIX 0; SAVE SOLUTION 0; SAVE EQUILIBRIUM_PHASES 0; SAVE SURFACE 0; END; TRANSPORT; -shifts 1; END   
USE SOLUTION 0; USE EQUILIBRIUM_PHASES 0; USE SURFACE 0; USE REACTION 0; USE MIX 0; SAVE SOLUTION 0; SAVE EQUILIBRIUM_PHASES 0; SAVE SURFACE 0; END; TRANSPORT; -shifts 1; END   
USE SOLUTION 0; USE EQUILIBRIUM_PHASES 0; USE SURFACE 0; USE REACTION 0; USE MIX 0; SAVE SOLUTION 0; SAVE EQUILIBRIUM_PHASES 0; SAVE SURFACE 0; END; TRANSPORT; -shifts 1; END   
USE SOLUTION 0; USE EQUILIBRIUM_PHASES 0; USE SURFACE 0; USE REACTION 0; USE MIX 0; SAVE SOLUTION 0; SAVE EQUILIBRIUM_PHASES 0; SAVE SURFACE 0; END; TRANSPORT; -shifts 1; END   
USE SOLUTION 0; USE EQUILIBRIUM_PHASES 0; USE SURFACE 0; USE REACTION 0; USE MIX 0; SAVE SOLUTION 0; SAVE EQUILIBRIUM_PHASES 0; SAVE SURFACE 0; END; TRANSPORT; -shifts 1; END  #20 
USE SOLUTION 0; USE EQUILIBRIUM_PHASES 0; USE SURFACE 0; USE REACTION 0; USE MIX 0; SAVE SOLUTION 0; SAVE EQUILIBRIUM_PHASES 0; SAVE SURFACE 0; END; TRANSPORT; -shifts 1; END   
USE SOLUTION 0; USE EQUILIBRIUM_PHASES 0; USE SURFACE 0; USE REACTION 0; USE MIX 0; SAVE SOLUTION 0; SAVE EQUILIBRIUM_PHASES 0; SAVE SURFACE 0; END; TRANSPORT; -shifts 1; END   
USE SOLUTION 0; USE EQUILIBRIUM_PHASES 0; USE SURFACE 0; USE REACTION 0; USE MIX 0; SAVE SOLUTION 0; SAVE EQUILIBRIUM_PHASES 0; SAVE SURFACE 0; END; TRANSPORT; -shifts 1; END   
USE SOLUTION 0; USE EQUILIBRIUM_PHASES 0; USE SURFACE 0; USE REACTION 0; USE MIX 0; SAVE SOLUTION 0; SAVE EQUILIBRIUM_PHASES 0; SAVE SURFACE 0; END; TRANSPORT; -shifts 1; END   
USE SOLUTION 0; USE EQUILIBRIUM_PHASES 0; USE SURFACE 0; USE REACTION 0; USE MIX 0; SAVE SOLUTION 0; SAVE EQUILIBRIUM_PHASES 0; SAVE SURFACE 0; END; TRANSPORT; -shifts 1; END   
USE SOLUTION 0; USE EQUILIBRIUM_PHASES 0; USE SURFACE 0; USE REACTION 0; USE MIX 0; SAVE SOLUTION 0; SAVE EQUILIBRIUM_PHASES 0; SAVE SURFACE 0; END; TRANSPORT; -shifts 1; END   
USE SOLUTION 0; USE EQUILIBRIUM_PHASES 0; USE SURFACE 0; USE REACTION 0; USE MIX 0; SAVE SOLUTION 0; SAVE EQUILIBRIUM_PHASES 0; SAVE SURFACE 0; END; TRANSPORT; -shifts 1; END   
USE SOLUTION 0; USE EQUILIBRIUM_PHASES 0; USE SURFACE 0; USE REACTION 0; USE MIX 0; SAVE SOLUTION 0; SAVE EQUILIBRIUM_PHASES 0; SAVE SURFACE 0; END; TRANSPORT; -shifts 1; END   
USE SOLUTION 0; USE EQUILIBRIUM_PHASES 0; USE SURFACE 0; USE REACTION 0; USE MIX 0; SAVE SOLUTION 0; SAVE EQUILIBRIUM_PHASES 0; SAVE SURFACE 0; END; TRANSPORT; -shifts 1; END   
USE SOLUTION 0; USE EQUILIBRIUM_PHASES 0; USE SURFACE 0; USE REACTION 0; USE MIX 0; SAVE SOLUTION 0; SAVE EQUILIBRIUM_PHASES 0; SAVE SURFACE 0; END; TRANSPORT; -shifts 1; END  #30 
USE SOLUTION 0; USE EQUILIBRIUM_PHASES 0; USE SURFACE 0; USE REACTION 0; USE MIX 0; SAVE SOLUTION 0; SAVE EQUILIBRIUM_PHASES 0; SAVE SURFACE 0; END; TRANSPORT; -shifts 1; END   
USE SOLUTION 0; USE EQUILIBRIUM_PHASES 0; USE SURFACE 0; USE REACTION 0; USE MIX 0; SAVE SOLUTION 0; SAVE EQUILIBRIUM_PHASES 0; SAVE SURFACE 0; END; TRANSPORT; -shifts 1; END   
USE SOLUTION 0; USE EQUILIBRIUM_PHASES 0; USE SURFACE 0; USE REACTION 0; USE MIX 0; SAVE SOLUTION 0; SAVE EQUILIBRIUM_PHASES 0; SAVE SURFACE 0; END; TRANSPORT; -shifts 1; END   
USE SOLUTION 0; USE EQUILIBRIUM_PHASES 0; USE SURFACE 0; USE REACTION 0; USE MIX 0; SAVE SOLUTION 0; SAVE EQUILIBRIUM_PHASES 0; SAVE SURFACE 0; END; TRANSPORT; -shifts 1; END   
USE SOLUTION 0; USE EQUILIBRIUM_PHASES 0; USE SURFACE 0; USE REACTION 0; USE MIX 0; SAVE SOLUTION 0; SAVE EQUILIBRIUM_PHASES 0; SAVE SURFACE 0; END; TRANSPORT; -shifts 1; END   
USE SOLUTION 0; USE EQUILIBRIUM_PHASES 0; USE SURFACE 0; USE REACTION 0; USE MIX 0; SAVE SOLUTION 0; SAVE EQUILIBRIUM_PHASES 0; SAVE SURFACE 0; END; TRANSPORT; -shifts 1; END   
USE SOLUTION 0; USE EQUILIBRIUM_PHASES 0; USE SURFACE 0; USE REACTION 0; USE MIX 0; SAVE SOLUTION 0; SAVE EQUILIBRIUM_PHASES 0; SAVE SURFACE 0; END; TRANSPORT; -shifts 1; END   
USE SOLUTION 0; USE EQUILIBRIUM_PHASES 0; USE SURFACE 0; USE REACTION 0; USE MIX 0; SAVE SOLUTION 0; SAVE EQUILIBRIUM_PHASES 0; SAVE SURFACE 0; END; TRANSPORT; -shifts 1; END   
USE SOLUTION 0; USE EQUILIBRIUM_PHASES 0; USE SURFACE 0; USE REACTION 0; USE MIX 0; SAVE SOLUTION 0; SAVE EQUILIBRIUM_PHASES 0; SAVE SURFACE 0; END; TRANSPORT; -shifts 1; END   
USE SOLUTION 0; USE EQUILIBRIUM_PHASES 0; USE SURFACE 0; USE REACTION 0; USE MIX 0; SAVE SOLUTION 0; SAVE EQUILIBRIUM_PHASES 0; SAVE SURFACE 0; END; TRANSPORT; -shifts 1; END  #40 
USE SOLUTION 0; USE EQUILIBRIUM_PHASES 0; USE SURFACE 0; USE REACTION 0; USE MIX 0; SAVE SOLUTION 0; SAVE EQUILIBRIUM_PHASES 0; SAVE SURFACE 0; END; TRANSPORT; -shifts 1; END   
USE SOLUTION 0; USE EQUILIBRIUM_PHASES 0; USE SURFACE 0; USE REACTION 0; USE MIX 0; SAVE SOLUTION 0; SAVE EQUILIBRIUM_PHASES 0; SAVE SURFACE 0; END; TRANSPORT; -shifts 1; END   
USE SOLUTION 0; USE EQUILIBRIUM_PHASES 0; USE SURFACE 0; USE REACTION 0; USE MIX 0; SAVE SOLUTION 0; SAVE EQUILIBRIUM_PHASES 0; SAVE SURFACE 0; END; TRANSPORT; -shifts 1; END   
USE SOLUTION 0; USE EQUILIBRIUM_PHASES 0; USE SURFACE 0; USE REACTION 0; USE MIX 0; SAVE SOLUTION 0; SAVE EQUILIBRIUM_PHASES 0; SAVE SURFACE 0; END; TRANSPORT; -shifts 1; END   
USE SOLUTION 0; USE EQUILIBRIUM_PHASES 0; USE SURFACE 0; USE REACTION 0; USE MIX 0; SAVE SOLUTION 0; SAVE EQUILIBRIUM_PHASES 0; SAVE SURFACE 0; END; TRANSPORT; -shifts 1; END   